947 
 
Au -5.940000 -1.980000 -1.980000 
Au -5.940000 -3.960000 0.000000 
Au -7.920000 -1.980000 0.000000 
Au -5.940000 -1.980000 1.980000 
Au -5.940000 0.000000 -3.960000 
Au -7.920000 0.000000 -1.980000 
Au -5.940000 1.980000 -1.980000 
Au -5.940000 0.000000 0.000000 
Au -7.920000 1.980000 0.000000 
Au -7.920000 0.000000 1.980000 
Au -5.940000 1.980000 1.980000 
Au -5.940000 0.000000 3.960000 
Au -5.940000 3.960000 0.000000 
Au -1.980000 -5.940000 -1.980000 
Au -1.980000 -7.920000 0.000000 
Au -3.960000 -5.940000 0.000000 
Au -1.980000 -5.940000 1.980000 
Au -1.980000 -1.980000 -5.940000 
Au -1.980000 -3.960000 -3.960000 
Au -3.960000 -1.980000 -3.960000 
Au -3.960000 -3.960000 -1.980000 
Au -1.980000 -1.980000 -1.980000 
Au -1.980000 -3.960000 0.000000 
Au -3.960000 -1.980000 0.000000 
Au -3.960000 -3.960000 1.980000 
Au -1.980000 -1.980000 1.980000 
Au -1.980000 -3.960000 3.960000 
Au -3.960000 -1.980000 3.960000 
Au -1.980000 -1.980000 5.940000 
Au -1.980000 0.000000 -7.920000 
Au -3.960000 0.000000 -5.940000 
Au -1.980000 1.980000 -5.940000 
Au -1.980000 0.000000 -3.960000 
Au -3.960000 1.980000 -3.960000 
Au -3.960000 0.000000 -1.980000 
Au -1.980000 1.980000 -1.980000 
Au -1.980000 0.000000 0.000000 
Au -3.960000 1.980000 0.000000 
Au -3.960000 0.000000 1.980000 
Au -1.980000 1.980000 1.980000 
Au -1.980000 0.000000 3.960000 
Au -3.960000 1.980000 3.960000 
Au -3.960000 0.000000 5.940000 
Au -1.980000 1.980000 5.940000 
Au -1.980000 0.000000 7.920000 
Au -1.980000 3.960000 -3.960000 
Au -3.960000 3.960000 -1.980000 
Au -1.980000 5.940000 -1.980000 
Au -1.980000 3.960000 0.000000 
Au -3.960000 5.940000 0.000000 
Au -3.960000 3.960000 1.980000 
Au -1.980000 5.940000 1.980000 
Au -1.980000 3.960000 3.960000 
Au -1.980000 7.920000 0.000000 
Au 0.000000 -5.940000 -3.960000 
Au 0.000000 -7.920000 -1.980000 
Au 1.980000 -5.940000 -1.980000 
Au 1.980000 -7.920000 0.000000 
Au 0.000000 -5.940000 0.000000 
Au 0.000000 -7.920000 1.980000 
Au 1.980000 -5.940000 1.980000 
Au 0.000000 -5.940000 3.960000 
Au 0.000000 -1.980000 -7.920000 
Au 0.000000 -3.960000 -5.940000 
Au 1.980000 -1.980000 -5.940000 
Au 1.980000 -3.960000 -3.960000 
Au 0.000000 -1.980000 -3.960000 
Au 0.000000 -3.960000 -1.980000 
Au 1.980000 -1.980000 -1.980000 
Au 1.980000 -3.960000 0.000000 
Au 0.000000 -1.980000 0.000000 
Au 0.000000 -3.960000 1.980000 
Au 1.980000 -1.980000 1.980000 
Au 1.980000 -3.960000 3.960000 
Au 0.000000 -1.980000 3.960000 
Au 0.000000 -3.960000 5.940000 
Au 1.980000 -1.980000 5.940000 
Au 0.000000 -1.980000 7.920000 
Au 1.980000 0.000000 -7.920000 
Au 0.000000 1.980000 -7.920000 
Au 0.000000 0.000000 -5.940000 
Au 1.980000 1.980000 -5.940000 
Au 1.980000 0.000000 -3.960000 
Au 0.000000 1.980000 -3.960000 
Au 0.000000 0.000000 -1.980000 
Au 1.980000 1.980000 -1.980000 
Au 1.980000 0.000000 0.000000 
Au 0.000000 1.980000 0.000000 
Au 0.000000 0.000000 1.980000 
Au 1.980000 1.980000 1.980000 
Au 1.980000 0.000000 3.960000 
Au 0.000000 1.980000 3.960000 
Au 0.000000 0.000000 5.940000 
Au 1.980000 1.980000 5.940000 
Au 1.980000 0.000000 7.920000 
Au 0.000000 1.980000 7.920000 
Au 0.000000 3.960000 -5.940000 
Au 1.980000 3.960000 -3.960000 
Au 0.000000 5.940000 -3.960000 
Au 0.000000 3.960000 -1.980000 
Au 1.980000 5.940000 -1.980000 
Au 1.980000 3.960000 0.000000 
Au 0.000000 5.940000 0.000000 
Au 0.000000 3.960000 1.980000 
Au 1.980000 5.940000 1.980000 
Au 1.980000 3.960000 3.960000 
Au 0.000000 5.940000 3.960000 
Au 0.000000 3.960000 5.940000 
Au 0.000000 7.920000 -1.980000 
Au 1.980000 7.920000 0.000000 
Au 0.000000 7.920000 1.980000 
Au 3.960000 -5.940000 0.000000 
Au 3.960000 -1.980000 -3.960000 
Au 3.960000 -3.960000 -1.980000 
Au 5.940000 -1.980000 -1.980000 
Au 5.940000 -3.960000 0.000000 
Au 3.960000 -1.980000 0.000000 
Au 3.960000 -3.960000 1.980000 
Au 5.940000 -1.980000 1.980000 
Au 3.960000 -1.980000 3.960000 
Au 3.960000 0.000000 -5.940000 
Au 5.940000 0.000000 -3.960000 
Au 3.960000 1.980000 -3.960000 
Au 3.960000 0.000000 -1.980000 
Au 5.940000 1.980000 -1.980000 
Au 5.940000 0.000000 0.000000 
Au 3.960000 1.980000 0.000000 
Au 3.960000 0.000000 1.980000 
Au 5.940000 1.980000 1.980000 
Au 5.940000 0.000000 3.960000 
Au 3.960000 1.980000 3.960000 
Au 3.960000 0.000000 5.940000 
Au 3.960000 3.960000 -1.980000 
Au 5.940000 3.960000 0.000000 
Au 3.960000 5.940000 0.000000 
Au 3.960000 3.960000 1.980000 
Au 7.920000 -1.980000 0.000000 
Au 7.920000 0.000000 -1.980000 
Au 7.920000 1.980000 0.000000 
Au 7.920000 0.000000 1.980000 
V 0.000000 0.000000 0.000000 
S 4.441922 4.441922 4.441922 
CH2 4.773016 5.883453 4.833409 
CH2 5.884630 5.884697 5.884697 
CH2 6.215724 7.326227 6.276183 
CH2 7.327339 7.327471 7.327471 
CH2 7.658432 8.769001 7.718957 
CH2 8.770047 8.770245 8.770245 
CH2 9.101140 10.211775 9.161732 
CH2 10.212755 10.213019 10.213019 
CH2 10.543848 11.654549 10.604506 
CH2 11.655463 11.655793 11.655793 
CH2 11.986556 13.097323 12.047280 
CH3 13.098171 13.098567 13.098567 
S 4.441922 4.441922 -4.441922 
CH2 4.773016 5.883453 -4.833409 
CH2 5.884630 5.884697 -5.884697 
CH2 6.215724 7.326227 -6.276183 
CH2 7.327339 7.327471 -7.327471 
CH2 7.658432 8.769001 -7.718957 
CH2 8.770047 8.770245 -8.770245 
CH2 9.101140 10.211775 -9.161732 
CH2 10.212755 10.213019 -10.213019 
CH2 10.543848 11.654549 -10.604506 
CH2 11.655463 11.655793 -11.655793 
CH2 11.986556 13.097323 -12.047280 
CH3 13.098171 13.098567 -13.098567 
S 4.441922 -4.441922 -4.441922 
CH2 5.553537 -4.443166 -5.493210 
CH2 5.884630 -5.884697 -5.884697 
CH2 6.996245 -5.885940 -6.935984 
CH2 7.327339 -7.327471 -7.327471 
CH2 8.438953 -7.328715 -8.378758 
CH2 8.770047 -8.770245 -8.770245 
CH2 9.881661 -8.771489 -9.821532 
CH2 10.212755 -10.213019 -10.213019 
CH2 11.324370 -10.214263 -11.264306 
CH2 11.655463 -11.655793 -11.655793 
CH2 12.767078 -11.657037 -12.707080 
CH3 13.098171 -13.098567 -13.098567 
S 4.441922 -4.441922 4.441922 
CH2 5.553537 -4.443166 5.493210 
CH2 5.884630 -5.884697 5.884697 
CH2 6.996245 -5.885940 6.935984 
CH2 7.327339 -7.327471 7.327471 
CH2 8.438953 -7.328715 8.378758 
CH2 8.770047 -8.770245 8.770245 
CH2 9.881661 -8.771489 9.821532 
CH2 10.212755 -10.213019 10.213019 
CH2 11.324370 -10.214263 11.264306 
CH2 11.655463 -11.655793 11.655793 
CH2 12.767078 -11.657037 12.707080 
CH3 13.098171 -13.098567 13.098567 
S -4.441922 4.441922 4.441922 
CH2 -5.553537 4.443166 5.493210 
CH2 -5.884630 5.884697 5.884697 
CH2 -6.996245 5.885940 6.935984 
CH2 -7.327339 7.327471 7.327471 
CH2 -8.438953 7.328715 8.378758 
CH2 -8.770047 8.770245 8.770245 
CH2 -9.881661 8.771489 9.821532 
CH2 -10.212755 10.213019 10.213019 
CH2 -11.324370 10.214263 11.264306 
CH2 -11.655463 11.655793 11.655793 
CH2 -12.767078 11.657037 12.707080 
CH3 -13.098171 13.098567 13.098567 
S -4.441922 -4.441922 4.441922 
CH2 -4.773016 -5.883453 4.833409 
CH2 -5.884630 -5.884697 5.884697 
CH2 -6.215724 -7.326227 6.276183 
CH2 -7.327339 -7.327471 7.327471 
CH2 -7.658432 -8.769001 7.718957 
CH2 -8.770047 -8.770245 8.770245 
CH2 -9.101140 -10.211775 9.161732 
CH2 -10.212755 -10.213019 10.213019 
CH2 -10.543848 -11.654549 10.604506 
CH2 -11.655463 -11.655793 11.655793 
CH2 -11.986556 -13.097323 12.047280 
CH3 -13.098171 -13.098567 13.098567 
S -4.441922 4.441922 -4.441922 
CH2 -5.553537 4.443166 -5.493210 
CH2 -5.884630 5.884697 -5.884697 
CH2 -6.996245 5.885940 -6.935984 
CH2 -7.327339 7.327471 -7.327471 
CH2 -8.438953 7.328715 -8.378758 
CH2 -8.770047 8.770245 -8.770245 
CH2 -9.881661 8.771489 -9.821532 
CH2 -10.212755 10.213019 -10.213019 
CH2 -11.324370 10.214263 -11.264306 
CH2 -11.655463 11.655793 -11.655793 
CH2 -12.767078 11.657037 -12.707080 
CH3 -13.098171 13.098567 -13.098567 
S -4.441922 -4.441922 -4.441922 
CH2 -4.773016 -5.883453 -4.833409 
CH2 -5.884630 -5.884697 -5.884697 
CH2 -6.215724 -7.326227 -6.276183 
CH2 -7.327339 -7.327471 -7.327471 
CH2 -7.658432 -8.769001 -7.718957 
CH2 -8.770047 -8.770245 -8.770245 
CH2 -9.101140 -10.211775 -9.161732 
CH2 -10.212755 -10.213019 -10.213019 
CH2 -10.543848 -11.654549 -10.604506 
CH2 -11.655463 -11.655793 -11.655793 
CH2 -11.986556 -13.097323 -12.047280 
CH3 -13.098171 -13.098567 -13.098567 
S -5.752838 -5.752838 1.792838 
CH2 -6.031358 -7.254319 1.887035 
CH2 -7.478377 -7.478496 2.330629 
CH2 -7.756897 -8.979978 2.424827 
CH2 -9.203916 -9.204154 2.868420 
CH2 -9.482437 -10.705636 2.962618 
CH2 -10.929456 -10.929812 3.406211 
CH2 -11.207976 -12.431294 3.500409 
CH2 -12.654995 -12.655470 3.944002 
CH2 -12.933515 -14.156952 4.038200 
CH2 -14.380534 -14.381128 4.481793 
CH2 -14.659055 -15.882610 4.575991 
CH3 -16.106074 -16.106786 5.019584 
S -2.475549 -2.475549 8.415549 
CH2 -2.763997 -3.664578 9.334191 
CH2 -3.154044 -3.154270 10.722839 
CH2 -3.442492 -4.343299 11.641480 
CH2 -3.832538 -3.832991 13.030128 
CH2 -4.120986 -5.022020 13.948770 
CH2 -4.511032 -4.511712 15.337418 
CH2 -4.799480 -5.700741 16.256059 
CH2 -5.189527 -5.190433 17.644707 
CH2 -5.477975 -6.379462 18.563348 
CH2 -5.868021 -5.869154 19.951997 
CH2 -6.156469 -7.058183 20.870638 
CH3 -6.546516 -6.547874 22.259286 
S -1.792838 -5.752838 5.752838 
CH2 -1.913978 -7.253825 6.023498 
CH2 -2.330626 -7.478437 7.478437 
CH2 -2.451766 -8.979424 7.749097 
CH2 -2.868414 -9.204036 9.204036 
CH2 -2.989554 -10.705023 9.474696 
CH2 -3.406202 -10.929635 10.929635 
CH2 -3.527342 -12.430622 11.200295 
CH2 -3.943990 -12.655234 12.655234 
CH2 -4.065130 -14.156222 12.925894 
CH2 -4.481778 -14.380834 14.380834 
CH2 -4.602919 -15.881821 14.651494 
CH3 -5.019566 -16.106433 16.106433 
S -8.415549 -2.475549 2.475549 
CH2 -9.334556 -3.664604 2.762722 
CH2 -10.722772 -3.154270 3.154270 
CH2 -11.641779 -4.343325 3.441443 
CH2 -13.029995 -3.832991 3.832991 
CH2 -13.949002 -5.022046 4.120164 
CH2 -15.337218 -4.511712 4.511712 
CH2 -16.256225 -5.700767 4.798885 
CH2 -17.644441 -5.190433 5.190433 
CH2 -18.563448 -6.379488 5.477606 
CH2 -19.951663 -5.869154 5.869154 
CH2 -20.870670 -7.058209 6.156326 
CH3 -22.258886 -6.547874 6.547874 
S -5.752838 -1.792838 5.752838 
CH2 -6.438333 -2.922004 6.524831 
CH2 -7.478377 -2.330629 7.478496 
CH2 -8.163872 -3.459795 8.250489 
CH2 -9.203916 -2.868420 9.204154 
CH2 -9.889411 -3.997587 9.976147 
CH2 -10.929456 -3.406211 10.929812 
CH2 -11.614951 -4.535378 11.701805 
CH2 -12.654995 -3.944002 12.655470 
CH2 -13.340490 -5.073169 13.427463 
CH2 -14.380534 -4.481793 14.381128 
CH2 -15.066029 -5.610960 15.153121 
CH3 -16.106074 -5.019584 16.106786 
S -2.475549 -8.415549 2.475549 
CH2 -2.234152 -9.908309 2.242550 
CH2 -3.154044 -10.722839 3.154270 
CH2 -2.912646 -12.215599 2.921271 
CH2 -3.832538 -13.030128 3.832991 
CH2 -3.591140 -14.522888 3.599991 
CH2 -4.511032 -15.337418 4.511712 
CH2 -4.269635 -16.830178 4.278712 
CH2 -5.189527 -17.644707 5.190433 
CH2 -4.948129 -19.137467 4.957433 
CH2 -5.868021 -19.951997 5.869154 
CH2 -5.626623 -21.444757 5.636154 
CH3 -6.546516 -22.259286 6.547874 
S -5.752838 1.792838 -5.752838 
CH2 -6.792882 1.201462 -6.706503 
CH2 -7.478377 2.330629 -7.478496 
CH2 -8.518421 1.739253 -8.432161 
CH2 -9.203916 2.868420 -9.204154 
CH2 -10.243961 2.277044 -10.157819 
CH2 -10.929456 3.406211 -10.929812 
CH2 -11.969500 2.814836 -11.883477 
CH2 -12.654995 3.944002 -12.655470 
CH2 -13.695039 3.352627 -13.609135 
CH2 -14.380534 4.481793 -14.381128 
CH2 -15.420578 3.890418 -15.334793 
CH3 -16.106074 5.019584 -16.106786 
S -2.475549 8.415549 -2.475549 
CH2 -3.395442 9.230079 -3.387270 
CH2 -3.154044 10.722839 -3.154270 
CH2 -4.073936 11.537368 -4.065991 
CH2 -3.832538 13.030128 -3.832991 
CH2 -4.752430 13.844658 -4.744712 
CH2 -4.511032 15.337418 -4.511712 
CH2 -5.430925 16.151947 -5.423432 
CH2 -5.189527 17.644707 -5.190433 
CH2 -6.109419 18.459237 -6.102153 
CH2 -5.868021 19.951997 -5.869154 
CH2 -6.787913 20.766526 -6.780874 
CH3 -6.546516 22.259286 -6.547874 
S -1.792838 5.752838 -5.752838 
CH2 -2.209486 5.977450 -7.207777 
CH2 -2.330626 7.478437 -7.478437 
CH2 -2.747274 7.703049 -8.933376 
CH2 -2.868414 9.204036 -9.204036 
CH2 -3.285062 9.428648 -10.658975 
CH2 -3.406202 10.929635 -10.929635 
CH2 -3.822850 11.154247 -12.384574 
CH2 -3.943990 12.655234 -12.655234 
CH2 -4.360638 12.879847 -14.110174 
CH2 -4.481778 14.380834 -14.380834 
CH2 -4.898426 14.605446 -15.835773 
CH3 -5.019566 16.106433 -16.106433 
S -8.415549 2.475549 -2.475549 
CH2 -9.803765 1.965215 -2.867097 
CH2 -10.722772 3.154270 -3.154270 
CH2 -12.110988 2.643936 -3.545818 
CH2 -13.029995 3.832991 -3.832991 
CH2 -14.418211 3.322657 -4.224539 
CH2 -15.337218 4.511712 -4.511712 
CH2 -16.725434 4.001378 -4.903260 
CH2 -17.644441 5.190433 -5.190433 
CH2 -19.032656 4.680099 -5.581981 
CH2 -19.951663 5.869154 -5.869154 
CH2 -21.339879 5.358819 -6.260702 
CH3 -22.258886 6.547874 -6.547874 
S -5.752838 5.752838 -1.792838 
CH2 -7.199857 5.977014 -2.236431 
CH2 -7.478377 7.478496 -2.330629 
CH2 -8.925396 7.702672 -2.774222 
CH2 -9.203916 9.204154 -2.868420 
CH2 -10.650935 9.428330 -3.312013 
CH2 -10.929456 10.929812 -3.406211 
CH2 -12.376475 11.153989 -3.849804 
CH2 -12.654995 12.655470 -3.944002 
CH2 -14.102014 12.879647 -4.387595 
CH2 -14.380534 14.381128 -4.481793 
CH2 -15.827553 14.605305 -4.925387 
CH3 -16.106074 16.106786 -5.019584 
S -2.475549 2.475549 -8.415549 
CH2 -2.865596 1.965241 -9.804197 
CH2 -3.154044 3.154270 -10.722839 
CH2 -3.544090 2.643962 -12.111487 
CH2 -3.832538 3.832991 -13.030128 
CH2 -4.222585 3.322683 -14.418776 
CH2 -4.511032 4.511712 -15.337418 
CH2 -4.901079 4.001404 -16.726066 
CH2 -5.189527 5.190433 -17.644707 
CH2 -5.579573 4.680125 -19.033355 
CH2 -5.868021 5.869154 -19.951997 
CH2 -6.258068 5.358846 -21.340645 
CH3 -6.546516 6.547874 -22.259286 
S 1.792838 -5.752838 -5.752838 
CH2 2.209486 -5.977450 -7.207777 
CH2 2.330626 -7.478437 -7.478437 
CH2 2.747274 -7.703049 -8.933376 
CH2 2.868414 -9.204036 -9.204036 
CH2 3.285062 -9.428648 -10.658975 
CH2 3.406202 -10.929635 -10.929635 
CH2 3.822850 -11.154247 -12.384574 
CH2 3.943990 -12.655234 -12.655234 
CH2 4.360638 -12.879847 -14.110174 
CH2 4.481778 -14.380834 -14.380834 
CH2 4.898426 -14.605446 -15.835773 
CH3 5.019566 -16.106433 -16.106433 
S 8.415549 -2.475549 -2.475549 
CH2 9.803765 -1.965215 -2.867097 
CH2 10.722772 -3.154270 -3.154270 
CH2 12.110988 -2.643936 -3.545818 
CH2 13.029995 -3.832991 -3.832991 
CH2 14.418211 -3.322657 -4.224539 
CH2 15.337218 -4.511712 -4.511712 
CH2 16.725434 -4.001378 -4.903260 
CH2 17.644441 -5.190433 -5.190433 
CH2 19.032656 -4.680099 -5.581981 
CH2 19.951663 -5.869154 -5.869154 
CH2 21.339879 -5.358819 -6.260702 
CH3 22.258886 -6.547874 -6.547874 
S 1.792838 5.752838 5.752838 
CH2 1.913978 7.253825 6.023498 
CH2 2.330626 7.478437 7.478437 
CH2 2.451766 8.979424 7.749097 
CH2 2.868414 9.204036 9.204036 
CH2 2.989554 10.705023 9.474696 
CH2 3.406202 10.929635 10.929635 
CH2 3.527342 12.430622 11.200295 
CH2 3.943990 12.655234 12.655234 
CH2 4.065130 14.156222 12.925894 
CH2 4.481778 14.380834 14.380834 
CH2 4.602919 15.881821 14.651494 
CH3 5.019566 16.106433 16.106433 
S 8.415549 2.475549 2.475549 
CH2 9.334556 3.664604 2.762722 
CH2 10.722772 3.154270 3.154270 
CH2 11.641779 4.343325 3.441443 
CH2 13.029995 3.832991 3.832991 
CH2 13.949002 5.022046 4.120164 
CH2 15.337218 4.511712 4.511712 
CH2 16.256225 5.700767 4.798885 
CH2 17.644441 5.190433 5.190433 
CH2 18.563448 6.379488 5.477606 
CH2 19.951663 5.869154 5.869154 
CH2 20.870670 7.058209 6.156326 
CH3 22.258886 6.547874 6.547874 
S 5.752838 -1.792838 -5.752838 
CH2 6.792882 -1.201462 -6.706503 
CH2 7.478377 -2.330629 -7.478496 
CH2 8.518421 -1.739253 -8.432161 
CH2 9.203916 -2.868420 -9.204154 
CH2 10.243961 -2.277044 -10.157819 
CH2 10.929456 -3.406211 -10.929812 
CH2 11.969500 -2.814836 -11.883477 
CH2 12.654995 -3.944002 -12.655470 
CH2 13.695039 -3.352627 -13.609135 
CH2 14.380534 -4.481793 -14.381128 
CH2 15.420578 -3.890418 -15.334793 
CH3 16.106074 -5.019584 -16.106786 
S 2.475549 -8.415549 -2.475549 
CH2 3.395442 -9.230079 -3.387270 
CH2 3.154044 -10.722839 -3.154270 
CH2 4.073936 -11.537368 -4.065991 
CH2 3.832538 -13.030128 -3.832991 
CH2 4.752430 -13.844658 -4.744712 
CH2 4.511032 -15.337418 -4.511712 
CH2 5.430925 -16.151947 -5.423432 
CH2 5.189527 -17.644707 -5.190433 
CH2 6.109419 -18.459237 -6.102153 
CH2 5.868021 -19.951997 -5.869154 
CH2 6.787913 -20.766526 -6.780874 
CH3 6.546516 -22.259286 -6.547874 
S 5.752838 -5.752838 -1.792838 
CH2 7.199857 -5.977014 -2.236431 
CH2 7.478377 -7.478496 -2.330629 
CH2 8.925396 -7.702672 -2.774222 
CH2 9.203916 -9.204154 -2.868420 
CH2 10.650935 -9.428330 -3.312013 
CH2 10.929456 -10.929812 -3.406211 
CH2 12.376475 -11.153989 -3.849804 
CH2 12.654995 -12.655470 -3.944002 
CH2 14.102014 -12.879647 -4.387595 
CH2 14.380534 -14.381128 -4.481793 
CH2 15.827553 -14.605305 -4.925387 
CH3 16.106074 -16.106786 -5.019584 
S 2.475549 -2.475549 -8.415549 
CH2 2.865596 -1.965241 -9.804197 
CH2 3.154044 -3.154270 -10.722839 
CH2 3.544090 -2.643962 -12.111487 
CH2 3.832538 -3.832991 -13.030128 
CH2 4.222585 -3.322683 -14.418776 
CH2 4.511032 -4.511712 -15.337418 
CH2 4.901079 -4.001404 -16.726066 
CH2 5.189527 -5.190433 -17.644707 
CH2 5.579573 -4.680125 -19.033355 
CH2 5.868021 -5.869154 -19.951997 
CH2 6.258068 -5.358846 -21.340645 
CH3 6.546516 -6.547874 -22.259286 
S 5.752838 1.792838 5.752838 
CH2 6.438333 2.922004 6.524831 
CH2 7.478377 2.330629 7.478496 
CH2 8.163872 3.459795 8.250489 
CH2 9.203916 2.868420 9.204154 
CH2 9.889411 3.997587 9.976147 
CH2 10.929456 3.406211 10.929812 
CH2 11.614951 4.535378 11.701805 
CH2 12.654995 3.944002 12.655470 
CH2 13.340490 5.073169 13.427463 
CH2 14.380534 4.481793 14.381128 
CH2 15.066029 5.610960 15.153121 
CH3 16.106074 5.019584 16.106786 
S 2.475549 8.415549 2.475549 
CH2 2.234152 9.908309 2.242550 
CH2 3.154044 10.722839 3.154270 
CH2 2.912646 12.215599 2.921271 
CH2 3.832538 13.030128 3.832991 
CH2 3.591140 14.522888 3.599991 
CH2 4.511032 15.337418 4.511712 
CH2 4.269635 16.830178 4.278712 
CH2 5.189527 17.644707 5.190433 
CH2 4.948129 19.137467 4.957433 
CH2 5.868021 19.951997 5.869154 
CH2 5.626623 21.444757 5.636154 
CH3 6.546516 22.259286 6.547874 
S 5.752838 5.752838 1.792838 
CH2 6.031358 7.254319 1.887035 
CH2 7.478377 7.478496 2.330629 
CH2 7.756897 8.979978 2.424827 
CH2 9.203916 9.204154 2.868420 
CH2 9.482437 10.705636 2.962618 
CH2 10.929456 10.929812 3.406211 
CH2 11.207976 12.431294 3.500409 
CH2 12.654995 12.655470 3.944002 
CH2 12.933515 14.156952 4.038200 
CH2 14.380534 14.381128 4.481793 
CH2 14.659055 15.882610 4.575991 
CH3 16.106074 16.106786 5.019584 
S 2.475549 2.475549 8.415549 
CH2 2.763997 3.664578 9.334191 
CH2 3.154044 3.154270 10.722839 
CH2 3.442492 4.343299 11.641480 
CH2 3.832538 3.832991 13.030128 
CH2 4.120986 5.022020 13.948770 
CH2 4.511032 4.511712 15.337418 
CH2 4.799480 5.700741 16.256059 
CH2 5.189527 5.190433 17.644707 
CH2 5.477975 6.379462 18.563348 
CH2 5.868021 5.869154 19.951997 
CH2 6.156469 7.058183 20.870638 
CH3 6.546516 6.547874 22.259286 
S -3.774099 -7.915870 -1.716232 
CH2 -3.587514 -9.432392 -1.637241 
CH2 -4.829456 -10.129570 -2.196182 
CH2 -4.642871 -11.646093 -2.117191 
CH2 -5.884814 -12.343271 -2.676133 
CH2 -5.698228 -13.859793 -2.597142 
CH2 -6.940171 -14.556971 -3.156083 
CH2 -6.753586 -16.073494 -3.077092 
CH2 -7.995529 -16.770672 -3.636033 
CH2 -7.808943 -18.287194 -3.557042 
CH2 -9.050886 -18.984372 -4.115983 
CH2 -8.864301 -20.500894 -4.036992 
CH3 -10.106243 -21.198072 -4.595934 
S -3.774099 -1.716232 -7.915870 
CH2 -4.170673 -2.820476 -8.897842 
CH2 -4.829456 -2.196182 -10.129570 
CH2 -5.226030 -3.300426 -11.111542 
CH2 -5.884814 -2.676133 -12.343271 
CH2 -6.281388 -3.780377 -13.325242 
CH2 -6.940171 -3.156083 -14.556971 
CH2 -7.336745 -4.260327 -15.538943 
CH2 -7.995529 -3.636033 -16.770672 
CH2 -8.392102 -4.740277 -17.752643 
CH2 -9.050886 -4.115983 -18.984372 
CH2 -9.447460 -5.220227 -19.966344 
CH3 -10.106243 -4.595934 -21.198072 
S -1.716232 -3.774099 -7.915870 
CH2 -1.957150 -5.098804 -8.642513 
CH2 -2.196001 -4.829539 -10.129570 
CH2 -2.436919 -6.154243 -10.856213 
CH2 -2.675770 -5.884978 -12.343271 
CH2 -2.916688 -7.209683 -13.069913 
CH2 -3.155539 -6.940418 -14.556971 
CH2 -3.396457 -8.265123 -15.283614 
CH2 -3.635308 -7.995858 -16.770672 
CH2 -3.876226 -9.320563 -17.497314 
CH2 -4.115077 -9.051298 -18.984372 
CH2 -4.355995 -10.376003 -19.711015 
CH3 -4.594846 -10.106738 -21.198072 
S -7.915870 -3.774099 -1.716232 
CH2 -8.656859 -5.102202 -1.883474 
CH2 -10.129531 -4.829539 -2.196182 
CH2 -10.870520 -6.157642 -2.363424 
CH2 -12.343192 -5.884978 -2.676133 
CH2 -13.084182 -7.213082 -2.843374 
CH2 -14.556853 -6.940418 -3.156083 
CH2 -15.297843 -8.268522 -3.323325 
CH2 -16.770514 -7.995858 -3.636033 
CH2 -17.511504 -9.323962 -3.803275 
CH2 -18.984176 -9.051298 -4.115983 
CH2 -19.725165 -10.379401 -4.283225 
CH3 -21.197837 -10.106738 -4.595934 
S -7.915870 -1.716232 -3.774099 
CH2 -8.856848 -2.822303 -4.255826 
CH2 -10.129531 -2.196182 -4.829539 
CH2 -11.070510 -3.302253 -5.311266 
CH2 -12.343192 -2.676133 -5.884978 
CH2 -13.284171 -3.782203 -6.366706 
CH2 -14.556853 -3.156083 -6.940418 
CH2 -15.497832 -4.262154 -7.422145 
CH2 -16.770514 -3.636033 -7.995858 
CH2 -17.711493 -4.742104 -8.477585 
CH2 -18.984176 -4.115983 -9.051298 
CH2 -19.925154 -5.222054 -9.533025 
CH3 -21.197837 -4.595934 -10.106738 
S -1.716232 -7.915870 -3.774099 
CH2 -1.639103 -9.432386 -3.586682 
CH2 -2.196001 -10.129570 -4.829539 
CH2 -2.118872 -11.646086 -4.642122 
CH2 -2.675770 -12.343271 -5.884978 
CH2 -2.598641 -13.859786 -5.697562 
CH2 -3.155539 -14.556971 -6.940418 
CH2 -3.078410 -16.073487 -6.753002 
CH2 -3.635308 -16.770672 -7.995858 
CH2 -3.558179 -18.287187 -7.808442 
CH2 -4.115077 -18.984372 -9.051298 
CH2 -4.037948 -20.500888 -8.863882 
CH3 -4.594846 -21.198072 -10.106738 
S -1.716232 3.774099 7.915870 
CH2 -1.955083 3.504834 9.402928 
CH2 -2.196001 4.829539 10.129570 
CH2 -2.434852 4.560274 11.616628 
CH2 -2.675770 5.884978 12.343271 
CH2 -2.914621 5.615713 13.830328 
CH2 -3.155539 6.940418 14.556971 
CH2 -3.394390 6.671153 16.044029 
CH2 -3.635308 7.995858 16.770672 
CH2 -3.874159 7.726593 18.257729 
CH2 -4.115077 9.051298 18.984372 
CH2 -4.353928 8.782033 20.471430 
CH3 -4.594846 10.106738 21.198072 
S -7.915870 3.774099 1.716232 
CH2 -9.388542 3.501435 2.028941 
CH2 -10.129531 4.829539 2.196182 
CH2 -11.602203 4.556875 2.508891 
CH2 -12.343192 5.884978 2.676133 
CH2 -13.815864 5.612315 2.988841 
CH2 -14.556853 6.940418 3.156083 
CH2 -16.029525 6.667755 3.468792 
CH2 -16.770514 7.995858 3.636033 
CH2 -18.243186 7.723194 3.948742 
CH2 -18.984176 9.051298 4.115983 
CH2 -20.456847 8.778634 4.428692 
CH3 -21.197837 10.106738 4.595934 
S -7.915870 1.716232 3.774099 
CH2 -9.188552 1.090112 4.347811 
CH2 -10.129531 2.196182 4.829539 
CH2 -11.402214 1.570062 5.403251 
CH2 -12.343192 2.676133 5.884978 
CH2 -13.615875 2.050012 6.458691 
CH2 -14.556853 3.156083 6.940418 
CH2 -15.829536 2.529963 7.514131 
CH2 -16.770514 3.636033 7.995858 
CH2 -18.043197 3.009913 8.569571 
CH2 -18.984176 4.115983 9.051298 
CH2 -20.256858 3.489863 9.625011 
CH3 -21.197837 4.595934 10.106738 
S -1.716232 7.915870 3.774099 
CH2 -2.273131 8.613054 5.016955 
CH2 -2.196001 10.129570 4.829539 
CH2 -2.752900 10.826755 6.072395 
CH2 -2.675770 12.343271 5.884978 
CH2 -3.232669 13.040455 7.127835 
CH2 -3.155539 14.556971 6.940418 
CH2 -3.712438 15.254156 8.183275 
CH2 -3.635308 16.770672 7.995858 
CH2 -4.192207 17.467856 9.238714 
CH2 -4.115077 18.984372 9.051298 
CH2 -4.671976 19.681557 10.294154 
CH3 -4.594846 21.198072 10.106738 
S -3.774099 7.915870 1.716232 
CH2 -5.016041 8.613048 2.275173 
CH2 -4.829456 10.129570 2.196182 
CH2 -6.071399 10.826748 2.755124 
CH2 -5.884814 12.343271 2.676133 
CH2 -7.126756 13.040449 3.235074 
CH2 -6.940171 14.556971 3.156083 
CH2 -8.182114 15.254149 3.715024 
CH2 -7.995529 16.770672 3.636033 
CH2 -9.237471 17.467850 4.194974 
CH2 -9.050886 18.984372 4.115983 
CH2 -10.292829 19.681550 4.674925 
CH3 -10.106243 21.198072 4.595934 
S -3.774099 1.716232 7.915870 
CH2 -4.432882 1.091938 9.147599 
CH2 -4.829456 2.196182 10.129570 
CH2 -5.488240 1.571889 11.361299 
CH2 -5.884814 2.676133 12.343271 
CH2 -6.543597 2.051839 13.574999 
CH2 -6.940171 3.156083 14.556971 
CH2 -7.598955 2.531789 15.788700 
CH2 -7.995529 3.636033 16.770672 
CH2 -8.654312 3.011739 18.002400 
CH2 -9.050886 4.115983 18.984372 
CH2 -9.709670 3.491690 20.216101 
CH3 -10.106243 4.595934 21.198072 
S 3.774099 -7.915870 1.716232 
CH2 5.016041 -8.613048 2.275173 
CH2 4.829456 -10.129570 2.196182 
CH2 6.071399 -10.826748 2.755124 
CH2 5.884814 -12.343271 2.676133 
CH2 7.126756 -13.040449 3.235074 
CH2 6.940171 -14.556971 3.156083 
CH2 8.182114 -15.254149 3.715024 
CH2 7.995529 -16.770672 3.636033 
CH2 9.237471 -17.467850 4.194974 
CH2 9.050886 -18.984372 4.115983 
CH2 10.292829 -19.681550 4.674925 
CH3 10.106243 -21.198072 4.595934 
S 3.774099 -1.716232 7.915870 
CH2 4.432882 -1.091938 9.147599 
CH2 4.829456 -2.196182 10.129570 
CH2 5.488240 -1.571889 11.361299 
CH2 5.884814 -2.676133 12.343271 
CH2 6.543597 -2.051839 13.574999 
CH2 6.940171 -3.156083 14.556971 
CH2 7.598955 -2.531789 15.788700 
CH2 7.995529 -3.636033 16.770672 
CH2 8.654312 -3.011739 18.002400 
CH2 9.050886 -4.115983 18.984372 
CH2 9.709670 -3.491690 20.216101 
CH3 10.106243 -4.595934 21.198072 
S 3.774099 7.915870 -1.716232 
CH2 3.587514 9.432392 -1.637241 
CH2 4.829456 10.129570 -2.196182 
CH2 4.642871 11.646093 -2.117191 
CH2 5.884814 12.343271 -2.676133 
CH2 5.698228 13.859793 -2.597142 
CH2 6.940171 14.556971 -3.156083 
CH2 6.753586 16.073494 -3.077092 
CH2 7.995529 16.770672 -3.636033 
CH2 7.808943 18.287194 -3.557042 
CH2 9.050886 18.984372 -4.115983 
CH2 8.864301 20.500894 -4.036992 
CH3 10.106243 21.198072 -4.595934 
S 3.774099 1.716232 -7.915870 
CH2 4.170673 2.820476 -8.897842 
CH2 4.829456 2.196182 -10.129570 
CH2 5.226030 3.300426 -11.111542 
CH2 5.884814 2.676133 -12.343271 
CH2 6.281388 3.780377 -13.325242 
CH2 6.940171 3.156083 -14.556971 
CH2 7.336745 4.260327 -15.538943 
CH2 7.995529 3.636033 -16.770672 
CH2 8.392102 4.740277 -17.752643 
CH2 9.050886 4.115983 -18.984372 
CH2 9.447460 5.220227 -19.966344 
CH3 10.106243 4.595934 -21.198072 
S 7.915870 -1.716232 3.774099 
CH2 9.188552 -1.090112 4.347811 
CH2 10.129531 -2.196182 4.829539 
CH2 11.402214 -1.570062 5.403251 
CH2 12.343192 -2.676133 5.884978 
CH2 13.615875 -2.050012 6.458691 
CH2 14.556853 -3.156083 6.940418 
CH2 15.829536 -2.529963 7.514131 
CH2 16.770514 -3.636033 7.995858 
CH2 18.043197 -3.009913 8.569571 
CH2 18.984176 -4.115983 9.051298 
CH2 20.256858 -3.489863 9.625011 
CH3 21.197837 -4.595934 10.106738 
S 1.716232 -7.915870 3.774099 
CH2 2.273131 -8.613054 5.016955 
CH2 2.196001 -10.129570 4.829539 
CH2 2.752900 -10.826755 6.072395 
CH2 2.675770 -12.343271 5.884978 
CH2 3.232669 -13.040455 7.127835 
CH2 3.155539 -14.556971 6.940418 
CH2 3.712438 -15.254156 8.183275 
CH2 3.635308 -16.770672 7.995858 
CH2 4.192207 -17.467856 9.238714 
CH2 4.115077 -18.984372 9.051298 
CH2 4.671976 -19.681557 10.294154 
CH3 4.594846 -21.198072 10.106738 
S 1.716232 -3.774099 7.915870 
CH2 1.955083 -3.504834 9.402928 
CH2 2.196001 -4.829539 10.129570 
CH2 2.434852 -4.560274 11.616628 
CH2 2.675770 -5.884978 12.343271 
CH2 2.914621 -5.615713 13.830328 
CH2 3.155539 -6.940418 14.556971 
CH2 3.394390 -6.671153 16.044029 
CH2 3.635308 -7.995858 16.770672 
CH2 3.874159 -7.726593 18.257729 
CH2 4.115077 -9.051298 18.984372 
CH2 4.353928 -8.782033 20.471430 
CH3 4.594846 -10.106738 21.198072 
S 7.915870 -3.774099 1.716232 
CH2 9.388542 -3.501435 2.028941 
CH2 10.129531 -4.829539 2.196182 
CH2 11.602203 -4.556875 2.508891 
CH2 12.343192 -5.884978 2.676133 
CH2 13.815864 -5.612315 2.988841 
CH2 14.556853 -6.940418 3.156083 
CH2 16.029525 -6.667755 3.468792 
CH2 16.770514 -7.995858 3.636033 
CH2 18.243186 -7.723194 3.948742 
CH2 18.984176 -9.051298 4.115983 
CH2 20.456847 -8.778634 4.428692 
CH3 21.197837 -10.106738 4.595934 
S 1.716232 3.774099 -7.915870 
CH2 1.957150 5.098804 -8.642513 
CH2 2.196001 4.829539 -10.129570 
CH2 2.436919 6.154243 -10.856213 
CH2 2.675770 5.884978 -12.343271 
CH2 2.916688 7.209683 -13.069913 
CH2 3.155539 6.940418 -14.556971 
CH2 3.396457 8.265123 -15.283614 
CH2 3.635308 7.995858 -16.770672 
CH2 3.876226 9.320563 -17.497314 
CH2 4.115077 9.051298 -18.984372 
CH2 4.355995 10.376003 -19.711015 
CH3 4.594846 10.106738 -21.198072 
S 7.915870 3.774099 -1.716232 
CH2 8.656859 5.102202 -1.883474 
CH2 10.129531 4.829539 -2.196182 
CH2 10.870520 6.157642 -2.363424 
CH2 12.343192 5.884978 -2.676133 
CH2 13.084182 7.213082 -2.843374 
CH2 14.556853 6.940418 -3.156083 
CH2 15.297843 8.268522 -3.323325 
CH2 16.770514 7.995858 -3.636033 
CH2 17.511504 9.323962 -3.803275 
CH2 18.984176 9.051298 -4.115983 
CH2 19.725165 10.379401 -4.283225 
CH3 21.197837 10.106738 -4.595934 
S 7.915870 1.716232 -3.774099 
CH2 8.856848 2.822303 -4.255826 
CH2 10.129531 2.196182 -4.829539 
CH2 11.070510 3.302253 -5.311266 
CH2 12.343192 2.676133 -5.884978 
CH2 13.284171 3.782203 -6.366706 
CH2 14.556853 3.156083 -6.940418 
CH2 15.497832 4.262154 -7.422145 
CH2 16.770514 3.636033 -7.995858 
CH2 17.711493 4.742104 -8.477585 
CH2 18.984176 4.115983 -9.051298 
CH2 19.925154 5.222054 -9.533025 
CH3 21.197837 4.595934 -10.106738 
S 1.716232 7.915870 -3.774099 
CH2 1.639103 9.432386 -3.586682 
CH2 2.196001 10.129570 -4.829539 
CH2 2.118872 11.646086 -4.642122 
CH2 2.675770 12.343271 -5.884978 
CH2 2.598641 13.859786 -5.697562 
CH2 3.155539 14.556971 -6.940418 
CH2 3.078410 16.073487 -6.753002 
CH2 3.635308 16.770672 -7.995858 
CH2 3.558179 18.287187 -7.808442 
CH2 4.115077 18.984372 -9.051298 
CH2 4.037948 20.500888 -8.863882 
CH3 4.594846 21.198072 -10.106738 
S 0.000000 0.000000 9.890000 
CH2 0.000000 0.883031 11.139460 
CH2 0.000000 0.000000 12.388920 
CH2 0.000000 0.883031 13.638380 
CH2 0.000000 0.000000 14.887840 
CH2 0.000000 0.883031 16.137300 
CH2 0.000000 0.000000 17.386760 
CH2 0.000000 0.883031 18.636220 
CH2 0.000000 0.000000 19.885680 
CH2 0.000000 0.883031 21.135140 
CH2 0.000000 0.000000 22.384600 
CH2 0.000000 0.883031 23.634060 
CH3 0.000000 0.000000 24.883520 
S 0.000000 0.000000 -9.890000 
CH2 -0.000000 0.883031 -11.139460 
CH2 -0.000000 0.000000 -12.388920 
CH2 -0.000000 0.883031 -13.638380 
CH2 -0.000000 0.000000 -14.887840 
CH2 -0.000000 0.883031 -16.137300 
CH2 -0.000000 0.000000 -17.386760 
CH2 -0.000000 0.883031 -18.636220 
CH2 -0.000000 0.000000 -19.885680 
CH2 -0.000000 0.883031 -21.135140 
CH2 -0.000000 0.000000 -22.384600 
CH2 -0.000000 0.883031 -23.634060 
CH3 -0.000000 0.000000 -24.883520 
S 0.000000 9.890000 0.000000 
CH2 -0.883031 11.139460 0.000000 
CH2 0.000000 12.388920 0.000000 
CH2 -0.883031 13.638380 0.000000 
CH2 0.000000 14.887840 0.000000 
CH2 -0.883031 16.137300 0.000000 
CH2 0.000000 17.386760 0.000000 
CH2 -0.883031 18.636220 0.000000 
CH2 0.000000 19.885680 0.000000 
CH2 -0.883031 21.135140 0.000000 
CH2 0.000000 22.384600 0.000000 
CH2 -0.883031 23.634060 0.000000 
CH3 0.000000 24.883520 0.000000 
S 0.000000 -9.890000 0.000000 
CH2 0.883031 -11.139460 0.000000 
CH2 -0.000000 -12.388920 0.000000 
CH2 0.883031 -13.638380 0.000000 
CH2 -0.000000 -14.887840 0.000000 
CH2 0.883031 -16.137300 0.000000 
CH2 -0.000000 -17.386760 0.000000 
CH2 0.883031 -18.636220 0.000000 
CH2 -0.000000 -19.885680 0.000000 
CH2 0.883031 -21.135140 0.000000 
CH2 -0.000000 -22.384600 0.000000 
CH2 0.883031 -23.634060 0.000000 
CH3 -0.000000 -24.883520 0.000000 
S 9.890000 0.000000 0.000000 
CH2 11.139460 0.883031 0.000000 
CH2 12.388920 0.000000 0.000000 
CH2 13.638380 0.883031 0.000000 
CH2 14.887840 0.000000 0.000000 
CH2 16.137300 0.883031 0.000000 
CH2 17.386760 0.000000 0.000000 
CH2 18.636220 0.883031 0.000000 
CH2 19.885680 0.000000 0.000000 
CH2 21.135140 0.883031 0.000000 
CH2 22.384600 0.000000 0.000000 
CH2 23.634060 0.883031 0.000000 
CH3 24.883520 0.000000 0.000000 
S -9.890000 0.000000 0.000000 
CH2 -11.139460 -0.883031 0.000000 
CH2 -12.388920 0.000000 0.000000 
CH2 -13.638380 -0.883031 0.000000 
CH2 -14.887840 0.000000 0.000000 
CH2 -16.137300 -0.883031 0.000000 
CH2 -17.386760 0.000000 0.000000 
CH2 -18.636220 -0.883031 0.000000 
CH2 -19.885680 0.000000 0.000000 
CH2 -21.135140 -0.883031 0.000000 
CH2 -22.384600 0.000000 0.000000 
CH2 -23.634060 -0.883031 0.000000 
CH3 -24.883520 0.000000 0.000000 
