1163 
 
Au -1.500000 -1.500000 0.000000
Au -1.500000 -0.500000 -1.000000
Au -1.500000 -1.000000 -0.500000
Au -2.000000 -0.500000 -0.500000
Au -2.000000 -1.000000 0.000000
Au -1.500000 -1.000000 0.500000
Au -2.000000 -0.500000 0.500000
Au -1.500000 -0.500000 1.000000
Au -1.500000 0.000000 -1.500000
Au -2.000000 0.000000 -1.000000
Au -1.500000 0.500000 -1.000000
Au -2.000000 0.500000 -0.500000
Au -2.000000 0.000000 0.000000
Au -2.000000 0.500000 0.500000
Au -2.000000 0.000000 1.000000
Au -1.500000 0.500000 1.000000
Au -1.500000 0.000000 1.500000
Au -1.500000 1.000000 -0.500000
Au -2.000000 1.000000 0.000000
Au -1.500000 1.500000 0.000000
Au -1.500000 1.000000 0.500000
Au -0.500000 -1.500000 -1.000000
Au -0.500000 -2.000000 -0.500000
Au -1.000000 -1.500000 -0.500000
Au -1.000000 -2.000000 0.000000
Au -0.500000 -2.000000 0.500000
Au -1.000000 -1.500000 0.500000
Au -0.500000 -1.500000 1.000000
Au -0.500000 -0.500000 -2.000000
Au -0.500000 -1.000000 -1.500000
Au -1.000000 -0.500000 -1.500000
Au -1.000000 -1.000000 -1.000000
Au -1.000000 -1.000000 1.000000
Au -0.500000 -1.000000 1.500000
Au -1.000000 -0.500000 1.500000
Au -0.500000 -0.500000 2.000000
Au -1.000000 0.000000 -2.000000
Au -0.500000 0.500000 -2.000000
Au -1.000000 0.500000 -1.500000
Au -1.000000 0.500000 1.500000
Au -1.000000 0.000000 2.000000
Au -0.500000 0.500000 2.000000
Au -0.500000 1.000000 -1.500000
Au -1.000000 1.000000 -1.000000
Au -0.500000 1.500000 -1.000000
Au -1.000000 1.500000 -0.500000
Au -1.000000 1.500000 0.500000
Au -1.000000 1.000000 1.000000
Au -0.500000 1.500000 1.000000
Au -0.500000 1.000000 1.500000
Au -0.500000 2.000000 -0.500000
Au -1.000000 2.000000 0.000000
Au -0.500000 2.000000 0.500000
Au 0.000000 -1.500000 -1.500000
Au 0.000000 -2.000000 -1.000000
Au 0.500000 -1.500000 -1.000000
Au 0.500000 -2.000000 -0.500000
Au 0.000000 -2.000000 0.000000
Au 0.500000 -2.000000 0.500000
Au 0.000000 -2.000000 1.000000
Au 0.500000 -1.500000 1.000000
Au 0.000000 -1.500000 1.500000
Au 0.000000 -1.000000 -2.000000
Au 0.500000 -0.500000 -2.000000
Au 0.500000 -1.000000 -1.500000
Au 0.500000 -1.000000 1.500000
Au 0.000000 -1.000000 2.000000
Au 0.500000 -0.500000 2.000000
Au 0.000000 0.000000 -2.000000
Au 0.500000 0.500000 -2.000000
Au 0.000000 0.000000 2.000000
Au 0.500000 0.500000 2.000000
Au 0.000000 1.000000 -2.000000
Au 0.500000 1.000000 -1.500000
Au 0.000000 1.500000 -1.500000
Au 0.500000 1.500000 -1.000000
Au 0.500000 1.500000 1.000000
Au 0.500000 1.000000 1.500000
Au 0.000000 1.500000 1.500000
Au 0.000000 1.000000 2.000000
Au 0.000000 2.000000 -1.000000
Au 0.500000 2.000000 -0.500000
Au 0.000000 2.000000 0.000000
Au 0.500000 2.000000 0.500000
Au 0.000000 2.000000 1.000000
Au 1.000000 -1.500000 -0.500000
Au 1.000000 -2.000000 0.000000
Au 1.500000 -1.500000 0.000000
Au 1.000000 -1.500000 0.500000
Au 1.000000 -0.500000 -1.500000
Au 1.000000 -1.000000 -1.000000
Au 1.500000 -0.500000 -1.000000
Au 1.500000 -1.000000 -0.500000
Au 1.500000 -1.000000 0.500000
Au 1.000000 -1.000000 1.000000
Au 1.500000 -0.500000 1.000000
Au 1.000000 -0.500000 1.500000
Au 1.000000 0.000000 -2.000000
Au 1.500000 0.000000 -1.500000
Au 1.000000 0.500000 -1.500000
Au 1.500000 0.500000 -1.000000
Au 1.500000 0.500000 1.000000
Au 1.500000 0.000000 1.500000
Au 1.000000 0.500000 1.500000
Au 1.000000 0.000000 2.000000
Au 1.000000 1.000000 -1.000000
Au 1.500000 1.000000 -0.500000
Au 1.000000 1.500000 -0.500000
Au 1.500000 1.500000 0.000000
Au 1.500000 1.000000 0.500000
Au 1.000000 1.500000 0.500000
Au 1.000000 1.000000 1.000000
Au 1.000000 2.000000 0.000000
Au 2.000000 -0.500000 -0.500000
Au 2.000000 -1.000000 0.000000
Au 2.000000 -0.500000 0.500000
Au 2.000000 0.000000 -1.000000
Au 2.000000 0.500000 -0.500000
Au 2.000000 0.000000 0.000000
Au 2.000000 0.500000 0.500000
Au 2.000000 0.000000 1.000000
Au 2.000000 1.000000 0.000000
V 0.000000 0.000000 0.000000
S -1.357199 -1.357199 -1.357199
CH2 -1.440808 -1.721222 -1.456059
CH2 -1.721519 -1.721536 -1.721536
CH2 -1.805129 -2.085559 -1.820396
CH2 -2.085839 -2.085873 -2.085873
CH2 -2.169449 -2.449896 -2.184733
CH2 -2.450160 -2.450210 -2.450210
CH2 -2.533769 -2.814233 -2.549070
CH2 -2.814480 -2.814547 -2.814547
CH2 -2.898089 -3.178569 -2.913407
CH2 -3.178800 -3.178884 -3.178884
CH2 -3.262410 -3.542906 -3.277744
CH3 -3.543120 -3.543220 -3.543220
S -1.357199 -1.357199 1.357199
CH2 -1.440808 -1.721222 1.456059
CH2 -1.721519 -1.721536 1.721536
CH2 -1.805129 -2.085559 1.820396
CH2 -2.085839 -2.085873 2.085873
CH2 -2.169449 -2.449896 2.184733
CH2 -2.450160 -2.450210 2.450210
CH2 -2.533769 -2.814233 2.549070
CH2 -2.814480 -2.814547 2.814547
CH2 -2.898089 -3.178569 2.913407
CH2 -3.178800 -3.178884 3.178884
CH2 -3.262410 -3.542906 3.277744
CH3 -3.543120 -3.543220 3.543220
S -1.357199 1.357199 -1.357199
CH2 -1.637910 1.357513 -1.622676
CH2 -1.721519 1.721536 -1.721536
CH2 -2.002230 1.721850 -1.987013
CH2 -2.085839 2.085873 -2.085873
CH2 -2.366550 2.086187 -2.351349
CH2 -2.450160 2.450210 -2.450210
CH2 -2.730870 2.450524 -2.715686
CH2 -2.814480 2.814547 -2.814547
CH2 -3.095191 2.814861 -3.080023
CH2 -3.178800 3.178884 -3.178884
CH2 -3.459511 3.179198 -3.444360
CH3 -3.543120 3.543220 -3.543220
S -1.357199 1.357199 1.357199
CH2 -1.637910 1.357513 1.622676
CH2 -1.721519 1.721536 1.721536
CH2 -2.002230 1.721850 1.987013
CH2 -2.085839 2.085873 2.085873
CH2 -2.366550 2.086187 2.351349
CH2 -2.450160 2.450210 2.450210
CH2 -2.730870 2.450524 2.715686
CH2 -2.814480 2.814547 2.814547
CH2 -3.095191 2.814861 3.080023
CH2 -3.178800 3.178884 3.178884
CH2 -3.459511 3.179198 3.444360
CH3 -3.543120 3.543220 3.543220
S 1.357199 -1.357199 -1.357199
CH2 1.637910 -1.357513 -1.622676
CH2 1.721519 -1.721536 -1.721536
CH2 2.002230 -1.721850 -1.987013
CH2 2.085839 -2.085873 -2.085873
CH2 2.366550 -2.086187 -2.351349
CH2 2.450160 -2.450210 -2.450210
CH2 2.730870 -2.450524 -2.715686
CH2 2.814480 -2.814547 -2.814547
CH2 3.095191 -2.814861 -3.080023
CH2 3.178800 -3.178884 -3.178884
CH2 3.459511 -3.179198 -3.444360
CH3 3.543120 -3.543220 -3.543220
S 1.357199 -1.357199 1.357199
CH2 1.637910 -1.357513 1.622676
CH2 1.721519 -1.721536 1.721536
CH2 2.002230 -1.721850 1.987013
CH2 2.085839 -2.085873 2.085873
CH2 2.366550 -2.086187 2.351349
CH2 2.450160 -2.450210 2.450210
CH2 2.730870 -2.450524 2.715686
CH2 2.814480 -2.814547 2.814547
CH2 3.095191 -2.814861 3.080023
CH2 3.178800 -3.178884 3.178884
CH2 3.459511 -3.179198 3.444360
CH3 3.543120 -3.543220 3.543220
S 1.357199 1.357199 -1.357199
CH2 1.440808 1.721222 -1.456059
CH2 1.721519 1.721536 -1.721536
CH2 1.805129 2.085559 -1.820396
CH2 2.085839 2.085873 -2.085873
CH2 2.169449 2.449896 -2.184733
CH2 2.450160 2.450210 -2.450210
CH2 2.533769 2.814233 -2.549070
CH2 2.814480 2.814547 -2.814547
CH2 2.898089 3.178569 -2.913407
CH2 3.178800 3.178884 -3.178884
CH2 3.262410 3.542906 -3.277744
CH3 3.543120 3.543220 -3.543220
S 1.357199 1.357199 1.357199
CH2 1.440808 1.721222 1.456059
CH2 1.721519 1.721536 1.721536
CH2 1.805129 2.085559 1.820396
CH2 2.085839 2.085873 2.085873
CH2 2.169449 2.449896 2.184733
CH2 2.450160 2.450210 2.450210
CH2 2.533769 2.814233 2.549070
CH2 2.814480 2.814547 2.814547
CH2 2.898089 3.178569 2.913407
CH2 3.178800 3.178884 3.178884
CH2 3.262410 3.542906 3.277744
CH3 3.543120 3.543220 3.543220
S -0.555112 -2.019323 -1.287217
CH2 -0.556837 -2.405659 -1.282958
CH2 -0.697618 -2.537699 -1.617656
CH2 -0.699343 -2.924035 -1.613397
CH2 -0.840124 -3.056076 -1.948095
CH2 -0.841849 -3.442411 -1.943836
CH2 -0.982630 -3.574452 -2.278534
CH2 -0.984355 -3.960788 -2.274276
CH2 -1.125136 -4.092828 -2.608973
CH2 -1.126861 -4.479164 -2.604714
CH2 -1.267642 -4.611205 -2.939412
CH2 -1.269367 -4.997540 -2.935154
CH3 -1.410148 -5.129581 -3.269851
S -0.555112 -1.287217 -2.019323
CH2 -0.609664 -1.641995 -2.162268
CH2 -0.697618 -1.617656 -2.537699
CH2 -0.752170 -1.972434 -2.680645
CH2 -0.840124 -1.948095 -3.056076
CH2 -0.894676 -2.302873 -3.199021
CH2 -0.982630 -2.278534 -3.574452
CH2 -1.037182 -2.633312 -3.717397
CH2 -1.125136 -2.608973 -4.092828
CH2 -1.179688 -2.963751 -4.235774
CH2 -1.267642 -2.939412 -4.611205
CH2 -1.322194 -3.294190 -4.754150
CH3 -1.410148 -3.269851 -5.129581
S -0.555112 -1.287217 2.019323
CH2 -0.609664 -1.641995 2.162268
CH2 -0.697618 -1.617656 2.537699
CH2 -0.752170 -1.972434 2.680645
CH2 -0.840124 -1.948095 3.056076
CH2 -0.894676 -2.302873 3.199021
CH2 -0.982630 -2.278534 3.574452
CH2 -1.037182 -2.633312 3.717397
CH2 -1.125136 -2.608973 4.092828
CH2 -1.179688 -2.963751 4.235774
CH2 -1.267642 -2.939412 4.611205
CH2 -1.322194 -3.294190 4.754150
CH3 -1.410148 -3.269851 5.129581
S -0.555112 -2.019323 1.287217
CH2 -0.556837 -2.405659 1.282958
CH2 -0.697618 -2.537699 1.617656
CH2 -0.699343 -2.924035 1.613397
CH2 -0.840124 -3.056076 1.948095
CH2 -0.841849 -3.442411 1.943836
CH2 -0.982630 -3.574452 2.278534
CH2 -0.984355 -3.960788 2.274276
CH2 -1.125136 -4.092828 2.608973
CH2 -1.126861 -4.479164 2.604714
CH2 -1.267642 -4.611205 2.939412
CH2 -1.269367 -4.997540 2.935154
CH3 -1.410148 -5.129581 3.269851
S -0.555112 2.019323 -1.287217
CH2 -0.695892 2.151363 -1.621915
CH2 -0.697618 2.537699 -1.617656
CH2 -0.838398 2.669740 -1.952354
CH2 -0.840124 3.056076 -1.948095
CH2 -0.980904 3.188116 -2.282793
CH2 -0.982630 3.574452 -2.278534
CH2 -1.123410 3.706492 -2.613232
CH2 -1.125136 4.092828 -2.608973
CH2 -1.265916 4.224869 -2.943671
CH2 -1.267642 4.611205 -2.939412
CH2 -1.408422 4.743245 -3.274110
CH3 -1.410148 5.129581 -3.269851
S -0.555112 2.019323 1.287217
CH2 -0.695892 2.151363 1.621915
CH2 -0.697618 2.537699 1.617656
CH2 -0.838398 2.669740 1.952354
CH2 -0.840124 3.056076 1.948095
CH2 -0.980904 3.188116 2.282793
CH2 -0.982630 3.574452 2.278534
CH2 -1.123410 3.706492 2.613232
CH2 -1.125136 4.092828 2.608973
CH2 -1.265916 4.224869 2.943671
CH2 -1.267642 4.611205 2.939412
CH2 -1.408422 4.743245 3.274110
CH3 -1.410148 5.129581 3.269851
S -0.555112 1.287217 -2.019323
CH2 -0.643065 1.262879 -2.394754
CH2 -0.697618 1.617656 -2.537699
CH2 -0.785571 1.593318 -2.913130
CH2 -0.840124 1.948095 -3.056076
CH2 -0.928077 1.923757 -3.431506
CH2 -0.982630 2.278534 -3.574452
CH2 -1.070583 2.254196 -3.949883
CH2 -1.125136 2.608973 -4.092828
CH2 -1.213089 2.584635 -4.468259
CH2 -1.267642 2.939412 -4.611205
CH2 -1.355595 2.915074 -4.986635
CH3 -1.410148 3.269851 -5.129581
S -0.555112 1.287217 2.019323
CH2 -0.643065 1.262879 2.394754
CH2 -0.697618 1.617656 2.537699
CH2 -0.785571 1.593318 2.913130
CH2 -0.840124 1.948095 3.056076
CH2 -0.928077 1.923757 3.431506
CH2 -0.982630 2.278534 3.574452
CH2 -1.070583 2.254196 3.949883
CH2 -1.125136 2.608973 4.092828
CH2 -1.213089 2.584635 4.468259
CH2 -1.267642 2.939412 4.611205
CH2 -1.355595 2.915074 4.986635
CH3 -1.410148 3.269851 5.129581
S -2.019323 -0.555112 -1.287217
CH2 -2.230111 -0.843321 -1.434798
CH2 -2.537691 -0.697619 -1.617669
CH2 -2.748479 -0.985829 -1.765250
CH2 -3.056058 -0.840126 -1.948121
CH2 -3.266846 -1.128336 -2.095702
CH2 -3.574426 -0.982633 -2.278573
CH2 -3.785214 -1.270843 -2.426154
CH2 -4.092794 -1.125140 -2.609025
CH2 -4.303582 -1.413350 -2.756606
CH2 -4.611162 -1.267648 -2.939477
CH2 -4.821950 -1.555857 -3.087057
CH3 -5.129530 -1.410155 -3.269929
S -1.287217 -0.555112 -2.019323
CH2 -1.410274 -0.842885 -2.245863
CH2 -1.617624 -0.697619 -2.537719
CH2 -1.740681 -0.985392 -2.764259
CH2 -1.948031 -0.840126 -3.056116
CH2 -2.071088 -1.127899 -3.282656
CH2 -2.278438 -0.982633 -3.574512
CH2 -2.401494 -1.270406 -3.801052
CH2 -2.608844 -1.125140 -4.092909
CH2 -2.731901 -1.412913 -4.319449
CH2 -2.939251 -1.267648 -4.611306
CH2 -3.062308 -1.555420 -4.837845
CH3 -3.269658 -1.410155 -5.129702
S -1.287217 -0.555112 2.019323
CH2 -1.410274 -0.842885 2.245863
CH2 -1.617624 -0.697619 2.537719
CH2 -1.740681 -0.985392 2.764259
CH2 -1.948031 -0.840126 3.056116
CH2 -2.071088 -1.127899 3.282656
CH2 -2.278438 -0.982633 3.574512
CH2 -2.401494 -1.270406 3.801052
CH2 -2.608844 -1.125140 4.092909
CH2 -2.731901 -1.412913 4.319449
CH2 -2.939251 -1.267648 4.611306
CH2 -3.062308 -1.555420 4.837845
CH3 -3.269658 -1.410155 5.129702
S -2.019323 -0.555112 1.287217
CH2 -2.230111 -0.843321 1.434798
CH2 -2.537691 -0.697619 1.617669
CH2 -2.748479 -0.985829 1.765250
CH2 -3.056058 -0.840126 1.948121
CH2 -3.266846 -1.128336 2.095702
CH2 -3.574426 -0.982633 2.278573
CH2 -3.785214 -1.270843 2.426154
CH2 -4.092794 -1.125140 2.609025
CH2 -4.303582 -1.413350 2.756606
CH2 -4.611162 -1.267648 2.939477
CH2 -4.821950 -1.555857 3.087057
CH3 -5.129530 -1.410155 3.269929
S -2.019323 -1.287217 -0.555112
CH2 -2.165329 -1.642403 -0.597560
CH2 -2.537691 -1.617669 -0.697619
CH2 -2.683697 -1.972855 -0.740067
CH2 -3.056058 -1.948121 -0.840126
CH2 -3.202065 -2.303306 -0.882574
CH2 -3.574426 -2.278573 -0.982633
CH2 -3.720433 -2.633758 -1.025081
CH2 -4.092794 -2.609025 -1.125140
CH2 -4.238801 -2.964210 -1.167589
CH2 -4.611162 -2.939477 -1.267648
CH2 -4.757169 -3.294662 -1.310096
CH3 -5.129530 -3.269929 -1.410155
S -1.287217 -2.019323 -0.555112
CH2 -1.283447 -2.405667 -0.555617
CH2 -1.617624 -2.537719 -0.697619
CH2 -1.613854 -2.924064 -0.698124
CH2 -1.948031 -3.056116 -0.840126
CH2 -1.944261 -3.442460 -0.840631
CH2 -2.278438 -3.574512 -0.982633
CH2 -2.274668 -3.960857 -0.983139
CH2 -2.608844 -4.092909 -1.125140
CH2 -2.605074 -4.479254 -1.125646
CH2 -2.939251 -4.611306 -1.267648
CH2 -2.935481 -4.997650 -1.268153
CH3 -3.269658 -5.129702 -1.410155
S -2.019323 -1.287217 0.555112
CH2 -2.165329 -1.642403 0.597560
CH2 -2.537691 -1.617669 0.697619
CH2 -2.683697 -1.972855 0.740067
CH2 -3.056058 -1.948121 0.840126
CH2 -3.202065 -2.303306 0.882574
CH2 -3.574426 -2.278573 0.982633
CH2 -3.720433 -2.633758 1.025081
CH2 -4.092794 -2.609025 1.125140
CH2 -4.238801 -2.964210 1.167589
CH2 -4.611162 -2.939477 1.267648
CH2 -4.757169 -3.294662 1.310096
CH3 -5.129530 -3.269929 1.410155
S -1.287217 -2.019323 0.555112
CH2 -1.283447 -2.405667 0.555617
CH2 -1.617624 -2.537719 0.697619
CH2 -1.613854 -2.924064 0.698124
CH2 -1.948031 -3.056116 0.840126
CH2 -1.944261 -3.442460 0.840631
CH2 -2.278438 -3.574512 0.982633
CH2 -2.274668 -3.960857 0.983139
CH2 -2.608844 -4.092909 1.125140
CH2 -2.605074 -4.479254 1.125646
CH2 -2.939251 -4.611306 1.267648
CH2 -2.935481 -4.997650 1.268153
CH3 -3.269658 -5.129702 1.410155
S -1.287217 2.019323 -0.555112
CH2 -1.621394 2.151375 -0.697113
CH2 -1.617624 2.537719 -0.697619
CH2 -1.951801 2.669771 -0.839621
CH2 -1.948031 3.056116 -0.840126
CH2 -2.282208 3.188168 -0.982128
CH2 -2.278438 3.574512 -0.982633
CH2 -2.612615 3.706565 -1.124635
CH2 -2.608844 4.092909 -1.125140
CH2 -2.943021 4.224961 -1.267142
CH2 -2.939251 4.611306 -1.267648
CH2 -3.273428 4.743358 -1.409649
CH3 -3.269658 5.129702 -1.410155
S -1.287217 2.019323 0.555112
CH2 -1.621394 2.151375 0.697113
CH2 -1.617624 2.537719 0.697619
CH2 -1.951801 2.669771 0.839621
CH2 -1.948031 3.056116 0.840126
CH2 -2.282208 3.188168 0.982128
CH2 -2.278438 3.574512 0.982633
CH2 -2.612615 3.706565 1.124635
CH2 -2.608844 4.092909 1.125140
CH2 -2.943021 4.224961 1.267142
CH2 -2.939251 4.611306 1.267648
CH2 -3.273428 4.743358 1.409649
CH3 -3.269658 5.129702 1.410155
S -2.019323 1.287217 -0.555112
CH2 -2.391684 1.262484 -0.655171
CH2 -2.537691 1.617669 -0.697619
CH2 -2.910052 1.592936 -0.797678
CH2 -3.056058 1.948121 -0.840126
CH2 -3.428420 1.923387 -0.940185
CH2 -3.574426 2.278573 -0.982633
CH2 -3.946788 2.253839 -1.082692
CH2 -4.092794 2.609025 -1.125140
CH2 -4.465156 2.584291 -1.225199
CH2 -4.611162 2.939477 -1.267648
CH2 -4.983523 2.914743 -1.367707
CH3 -5.129530 3.269929 -1.410155
S -2.019323 0.555112 -1.287217
CH2 -2.326903 0.409409 -1.470088
CH2 -2.537691 0.697619 -1.617669
CH2 -2.845270 0.551916 -1.800540
CH2 -3.056058 0.840126 -1.948121
CH2 -3.363638 0.694423 -2.130992
CH2 -3.574426 0.982633 -2.278573
CH2 -3.882006 0.836931 -2.461444
CH2 -4.092794 1.125140 -2.609025
CH2 -4.400374 0.979438 -2.791896
CH2 -4.611162 1.267648 -2.939477
CH2 -4.918742 1.121945 -3.122348
CH3 -5.129530 1.410155 -3.269929
S -1.287217 0.555112 -2.019323
CH2 -1.494567 0.409846 -2.311179
CH2 -1.617624 0.697619 -2.537719
CH2 -1.824974 0.552353 -2.829576
CH2 -1.948031 0.840126 -3.056116
CH2 -2.155381 0.694860 -3.347972
CH2 -2.278438 0.982633 -3.574512
CH2 -2.485788 0.837368 -3.866369
CH2 -2.608844 1.125140 -4.092909
CH2 -2.816194 0.979875 -4.384766
CH2 -2.939251 1.267648 -4.611306
CH2 -3.146602 1.122382 -4.903162
CH3 -3.269658 1.410155 -5.129702
S -1.287217 0.555112 2.019323
CH2 -1.494567 0.409846 2.311179
CH2 -1.617624 0.697619 2.537719
CH2 -1.824974 0.552353 2.829576
CH2 -1.948031 0.840126 3.056116
CH2 -2.155381 0.694860 3.347972
CH2 -2.278438 0.982633 3.574512
CH2 -2.485788 0.837368 3.866369
CH2 -2.608844 1.125140 4.092909
CH2 -2.816194 0.979875 4.384766
CH2 -2.939251 1.267648 4.611306
CH2 -3.146602 1.122382 4.903162
CH3 -3.269658 1.410155 5.129702
S -2.019323 0.555112 1.287217
CH2 -2.326903 0.409409 1.470088
CH2 -2.537691 0.697619 1.617669
CH2 -2.845270 0.551916 1.800540
CH2 -3.056058 0.840126 1.948121
CH2 -3.363638 0.694423 2.130992
CH2 -3.574426 0.982633 2.278573
CH2 -3.882006 0.836931 2.461444
CH2 -4.092794 1.125140 2.609025
CH2 -4.400374 0.979438 2.791896
CH2 -4.611162 1.267648 2.939477
CH2 -4.918742 1.121945 3.122348
CH3 -5.129530 1.410155 3.269929
S -2.019323 1.287217 0.555112
CH2 -2.391684 1.262484 0.655171
CH2 -2.537691 1.617669 0.697619
CH2 -2.910052 1.592936 0.797678
CH2 -3.056058 1.948121 0.840126
CH2 -3.428420 1.923387 0.940185
CH2 -3.574426 2.278573 0.982633
CH2 -3.946788 2.253839 1.082692
CH2 -4.092794 2.609025 1.125140
CH2 -4.465156 2.584291 1.225199
CH2 -4.611162 2.939477 1.267648
CH2 -4.983523 2.914743 1.367707
CH3 -5.129530 3.269929 1.410155
S 2.019323 -0.555112 -1.287217
CH2 2.326903 -0.409409 -1.470088
CH2 2.537691 -0.697619 -1.617669
CH2 2.845270 -0.551916 -1.800540
CH2 3.056058 -0.840126 -1.948121
CH2 3.363638 -0.694423 -2.130992
CH2 3.574426 -0.982633 -2.278573
CH2 3.882006 -0.836931 -2.461444
CH2 4.092794 -1.125140 -2.609025
CH2 4.400374 -0.979438 -2.791896
CH2 4.611162 -1.267648 -2.939477
CH2 4.918742 -1.121945 -3.122348
CH3 5.129530 -1.410155 -3.269929
S 2.019323 -0.555112 1.287217
CH2 2.326903 -0.409409 1.470088
CH2 2.537691 -0.697619 1.617669
CH2 2.845270 -0.551916 1.800540
CH2 3.056058 -0.840126 1.948121
CH2 3.363638 -0.694423 2.130992
CH2 3.574426 -0.982633 2.278573
CH2 3.882006 -0.836931 2.461444
CH2 4.092794 -1.125140 2.609025
CH2 4.400374 -0.979438 2.791896
CH2 4.611162 -1.267648 2.939477
CH2 4.918742 -1.121945 3.122348
CH3 5.129530 -1.410155 3.269929
S 2.019323 -1.287217 -0.555112
CH2 2.391684 -1.262484 -0.655171
CH2 2.537691 -1.617669 -0.697619
CH2 2.910052 -1.592936 -0.797678
CH2 3.056058 -1.948121 -0.840126
CH2 3.428420 -1.923387 -0.940185
CH2 3.574426 -2.278573 -0.982633
CH2 3.946788 -2.253839 -1.082692
CH2 4.092794 -2.609025 -1.125140
CH2 4.465156 -2.584291 -1.225199
CH2 4.611162 -2.939477 -1.267648
CH2 4.983523 -2.914743 -1.367707
CH3 5.129530 -3.269929 -1.410155
S 2.019323 -1.287217 0.555112
CH2 2.391684 -1.262484 0.655171
CH2 2.537691 -1.617669 0.697619
CH2 2.910052 -1.592936 0.797678
CH2 3.056058 -1.948121 0.840126
CH2 3.428420 -1.923387 0.940185
CH2 3.574426 -2.278573 0.982633
CH2 3.946788 -2.253839 1.082692
CH2 4.092794 -2.609025 1.125140
CH2 4.465156 -2.584291 1.225199
CH2 4.611162 -2.939477 1.267648
CH2 4.983523 -2.914743 1.367707
CH3 5.129530 -3.269929 1.410155
S 2.019323 1.287217 -0.555112
CH2 2.165329 1.642403 -0.597560
CH2 2.537691 1.617669 -0.697619
CH2 2.683697 1.972855 -0.740067
CH2 3.056058 1.948121 -0.840126
CH2 3.202065 2.303306 -0.882574
CH2 3.574426 2.278573 -0.982633
CH2 3.720433 2.633758 -1.025081
CH2 4.092794 2.609025 -1.125140
CH2 4.238801 2.964210 -1.167589
CH2 4.611162 2.939477 -1.267648
CH2 4.757169 3.294662 -1.310096
CH3 5.129530 3.269929 -1.410155
S 2.019323 0.555112 -1.287217
CH2 2.230111 0.843321 -1.434798
CH2 2.537691 0.697619 -1.617669
CH2 2.748479 0.985829 -1.765250
CH2 3.056058 0.840126 -1.948121
CH2 3.266846 1.128336 -2.095702
CH2 3.574426 0.982633 -2.278573
CH2 3.785214 1.270843 -2.426154
CH2 4.092794 1.125140 -2.609025
CH2 4.303582 1.413350 -2.756606
CH2 4.611162 1.267648 -2.939477
CH2 4.821950 1.555857 -3.087057
CH3 5.129530 1.410155 -3.269929
S 2.019323 0.555112 1.287217
CH2 2.230111 0.843321 1.434798
CH2 2.537691 0.697619 1.617669
CH2 2.748479 0.985829 1.765250
CH2 3.056058 0.840126 1.948121
CH2 3.266846 1.128336 2.095702
CH2 3.574426 0.982633 2.278573
CH2 3.785214 1.270843 2.426154
CH2 4.092794 1.125140 2.609025
CH2 4.303582 1.413350 2.756606
CH2 4.611162 1.267648 2.939477
CH2 4.821950 1.555857 3.087057
CH3 5.129530 1.410155 3.269929
S 2.019323 1.287217 0.555112
CH2 2.165329 1.642403 0.597560
CH2 2.537691 1.617669 0.697619
CH2 2.683697 1.972855 0.740067
CH2 3.056058 1.948121 0.840126
CH2 3.202065 2.303306 0.882574
CH2 3.574426 2.278573 0.982633
CH2 3.720433 2.633758 1.025081
CH2 4.092794 2.609025 1.125140
CH2 4.238801 2.964210 1.167589
CH2 4.611162 2.939477 1.267648
CH2 4.757169 3.294662 1.310096
CH3 5.129530 3.269929 1.410155
S 1.287217 -0.555112 -2.019323
CH2 1.494567 -0.409846 -2.311179
CH2 1.617624 -0.697619 -2.537719
CH2 1.824974 -0.552353 -2.829576
CH2 1.948031 -0.840126 -3.056116
CH2 2.155381 -0.694860 -3.347972
CH2 2.278438 -0.982633 -3.574512
CH2 2.485788 -0.837368 -3.866369
CH2 2.608844 -1.125140 -4.092909
CH2 2.816194 -0.979875 -4.384766
CH2 2.939251 -1.267648 -4.611306
CH2 3.146602 -1.122382 -4.903162
CH3 3.269658 -1.410155 -5.129702
S 1.287217 -0.555112 2.019323
CH2 1.494567 -0.409846 2.311179
CH2 1.617624 -0.697619 2.537719
CH2 1.824974 -0.552353 2.829576
CH2 1.948031 -0.840126 3.056116
CH2 2.155381 -0.694860 3.347972
CH2 2.278438 -0.982633 3.574512
CH2 2.485788 -0.837368 3.866369
CH2 2.608844 -1.125140 4.092909
CH2 2.816194 -0.979875 4.384766
CH2 2.939251 -1.267648 4.611306
CH2 3.146602 -1.122382 4.903162
CH3 3.269658 -1.410155 5.129702
S 1.287217 -2.019323 -0.555112
CH2 1.621394 -2.151375 -0.697113
CH2 1.617624 -2.537719 -0.697619
CH2 1.951801 -2.669771 -0.839621
CH2 1.948031 -3.056116 -0.840126
CH2 2.282208 -3.188168 -0.982128
CH2 2.278438 -3.574512 -0.982633
CH2 2.612615 -3.706565 -1.124635
CH2 2.608844 -4.092909 -1.125140
CH2 2.943021 -4.224961 -1.267142
CH2 2.939251 -4.611306 -1.267648
CH2 3.273428 -4.743358 -1.409649
CH3 3.269658 -5.129702 -1.410155
S 0.555112 -2.019323 -1.287217
CH2 0.695892 -2.151363 -1.621915
CH2 0.697618 -2.537699 -1.617656
CH2 0.838398 -2.669740 -1.952354
CH2 0.840124 -3.056076 -1.948095
CH2 0.980904 -3.188116 -2.282793
CH2 0.982630 -3.574452 -2.278534
CH2 1.123410 -3.706492 -2.613232
CH2 1.125136 -4.092828 -2.608973
CH2 1.265916 -4.224869 -2.943671
CH2 1.267642 -4.611205 -2.939412
CH2 1.408422 -4.743245 -3.274110
CH3 1.410148 -5.129581 -3.269851
S 0.555112 -1.287217 -2.019323
CH2 0.643065 -1.262879 -2.394754
CH2 0.697618 -1.617656 -2.537699
CH2 0.785571 -1.593318 -2.913130
CH2 0.840124 -1.948095 -3.056076
CH2 0.928077 -1.923757 -3.431506
CH2 0.982630 -2.278534 -3.574452
CH2 1.070583 -2.254196 -3.949883
CH2 1.125136 -2.608973 -4.092828
CH2 1.213089 -2.584635 -4.468259
CH2 1.267642 -2.939412 -4.611205
CH2 1.355595 -2.915074 -4.986635
CH3 1.410148 -3.269851 -5.129581
S 0.555112 -1.287217 2.019323
CH2 0.643065 -1.262879 2.394754
CH2 0.697618 -1.617656 2.537699
CH2 0.785571 -1.593318 2.913130
CH2 0.840124 -1.948095 3.056076
CH2 0.928077 -1.923757 3.431506
CH2 0.982630 -2.278534 3.574452
CH2 1.070583 -2.254196 3.949883
CH2 1.125136 -2.608973 4.092828
CH2 1.213089 -2.584635 4.468259
CH2 1.267642 -2.939412 4.611205
CH2 1.355595 -2.915074 4.986635
CH3 1.410148 -3.269851 5.129581
S 0.555112 -2.019323 1.287217
CH2 0.695892 -2.151363 1.621915
CH2 0.697618 -2.537699 1.617656
CH2 0.838398 -2.669740 1.952354
CH2 0.840124 -3.056076 1.948095
CH2 0.980904 -3.188116 2.282793
CH2 0.982630 -3.574452 2.278534
CH2 1.123410 -3.706492 2.613232
CH2 1.125136 -4.092828 2.608973
CH2 1.265916 -4.224869 2.943671
CH2 1.267642 -4.611205 2.939412
CH2 1.408422 -4.743245 3.274110
CH3 1.410148 -5.129581 3.269851
S 1.287217 -2.019323 0.555112
CH2 1.621394 -2.151375 0.697113
CH2 1.617624 -2.537719 0.697619
CH2 1.951801 -2.669771 0.839621
CH2 1.948031 -3.056116 0.840126
CH2 2.282208 -3.188168 0.982128
CH2 2.278438 -3.574512 0.982633
CH2 2.612615 -3.706565 1.124635
CH2 2.608844 -4.092909 1.125140
CH2 2.943021 -4.224961 1.267142
CH2 2.939251 -4.611306 1.267648
CH2 3.273428 -4.743358 1.409649
CH3 3.269658 -5.129702 1.410155
S 1.287217 2.019323 -0.555112
CH2 1.283447 2.405667 -0.555617
CH2 1.617624 2.537719 -0.697619
CH2 1.613854 2.924064 -0.698124
CH2 1.948031 3.056116 -0.840126
CH2 1.944261 3.442460 -0.840631
CH2 2.278438 3.574512 -0.982633
CH2 2.274668 3.960857 -0.983139
CH2 2.608844 4.092909 -1.125140
CH2 2.605074 4.479254 -1.125646
CH2 2.939251 4.611306 -1.267648
CH2 2.935481 4.997650 -1.268153
CH3 3.269658 5.129702 -1.410155
S 0.555112 2.019323 -1.287217
CH2 0.556837 2.405659 -1.282958
CH2 0.697618 2.537699 -1.617656
CH2 0.699343 2.924035 -1.613397
CH2 0.840124 3.056076 -1.948095
CH2 0.841849 3.442411 -1.943836
CH2 0.982630 3.574452 -2.278534
CH2 0.984355 3.960788 -2.274276
CH2 1.125136 4.092828 -2.608973
CH2 1.126861 4.479164 -2.604714
CH2 1.267642 4.611205 -2.939412
CH2 1.269367 4.997540 -2.935154
CH3 1.410148 5.129581 -3.269851
S 0.555112 2.019323 1.287217
CH2 0.556837 2.405659 1.282958
CH2 0.697618 2.537699 1.617656
CH2 0.699343 2.924035 1.613397
CH2 0.840124 3.056076 1.948095
CH2 0.841849 3.442411 1.943836
CH2 0.982630 3.574452 2.278534
CH2 0.984355 3.960788 2.274276
CH2 1.125136 4.092828 2.608973
CH2 1.126861 4.479164 2.604714
CH2 1.267642 4.611205 2.939412
CH2 1.269367 4.997540 2.935154
CH3 1.410148 5.129581 3.269851
S 1.287217 2.019323 0.555112
CH2 1.283447 2.405667 0.555617
CH2 1.617624 2.537719 0.697619
CH2 1.613854 2.924064 0.698124
CH2 1.948031 3.056116 0.840126
CH2 1.944261 3.442460 0.840631
CH2 2.278438 3.574512 0.982633
CH2 2.274668 3.960857 0.983139
CH2 2.608844 4.092909 1.125140
CH2 2.605074 4.479254 1.125646
CH2 2.939251 4.611306 1.267648
CH2 2.935481 4.997650 1.268153
CH3 3.269658 5.129702 1.410155
S 0.555112 1.287217 -2.019323
CH2 0.609664 1.641995 -2.162268
CH2 0.697618 1.617656 -2.537699
CH2 0.752170 1.972434 -2.680645
CH2 0.840124 1.948095 -3.056076
CH2 0.894676 2.302873 -3.199021
CH2 0.982630 2.278534 -3.574452
CH2 1.037182 2.633312 -3.717397
CH2 1.125136 2.608973 -4.092828
CH2 1.179688 2.963751 -4.235774
CH2 1.267642 2.939412 -4.611205
CH2 1.322194 3.294190 -4.754150
CH3 1.410148 3.269851 -5.129581
S 1.287217 0.555112 -2.019323
CH2 1.410274 0.842885 -2.245863
CH2 1.617624 0.697619 -2.537719
CH2 1.740681 0.985392 -2.764259
CH2 1.948031 0.840126 -3.056116
CH2 2.071088 1.127899 -3.282656
CH2 2.278438 0.982633 -3.574512
CH2 2.401494 1.270406 -3.801052
CH2 2.608844 1.125140 -4.092909
CH2 2.731901 1.412913 -4.319449
CH2 2.939251 1.267648 -4.611306
CH2 3.062308 1.555420 -4.837845
CH3 3.269658 1.410155 -5.129702
S 0.555112 1.287217 2.019323
CH2 0.609664 1.641995 2.162268
CH2 0.697618 1.617656 2.537699
CH2 0.752170 1.972434 2.680645
CH2 0.840124 1.948095 3.056076
CH2 0.894676 2.302873 3.199021
CH2 0.982630 2.278534 3.574452
CH2 1.037182 2.633312 3.717397
CH2 1.125136 2.608973 4.092828
CH2 1.179688 2.963751 4.235774
CH2 1.267642 2.939412 4.611205
CH2 1.322194 3.294190 4.754150
CH3 1.410148 3.269851 5.129581
S 1.287217 0.555112 2.019323
CH2 1.410274 0.842885 2.245863
CH2 1.617624 0.697619 2.537719
CH2 1.740681 0.985392 2.764259
CH2 1.948031 0.840126 3.056116
CH2 2.071088 1.127899 3.282656
CH2 2.278438 0.982633 3.574512
CH2 2.401494 1.270406 3.801052
CH2 2.608844 1.125140 4.092909
CH2 2.731901 1.412913 4.319449
CH2 2.939251 1.267648 4.611306
CH2 3.062308 1.555420 4.837845
CH3 3.269658 1.410155 5.129702
S -2.497475 0.732106 0.000000
CH2 -2.862981 0.606879 0.000000
CH2 -3.103033 0.909618 0.000000
CH2 -3.468539 0.784391 0.000000
CH2 -3.708592 1.087130 0.000000
CH2 -4.074098 0.961903 0.000000
CH2 -4.314151 1.264643 0.000000
CH2 -4.679657 1.139416 0.000000
CH2 -4.919710 1.442155 0.000000
CH2 -5.285216 1.316928 0.000000
CH2 -5.525268 1.619668 0.000000
CH2 -5.890774 1.494441 0.000000
CH3 -6.130827 1.797180 0.000000
S -2.497475 -0.732106 0.000000
CH2 -2.737527 -1.034845 0.000000
CH2 -3.103033 -0.909618 0.000000
CH2 -3.343086 -1.212358 0.000000
CH2 -3.708592 -1.087130 0.000000
CH2 -3.948645 -1.389870 0.000000
CH2 -4.314151 -1.264643 0.000000
CH2 -4.554204 -1.567382 0.000000
CH2 -4.919710 -1.442155 0.000000
CH2 -5.159762 -1.744895 0.000000
CH2 -5.525268 -1.619668 0.000000
CH2 -5.765321 -1.922407 0.000000
CH3 -6.130827 -1.797180 0.000000
S -2.497475 0.000000 0.732106
CH2 -2.800254 -0.222988 0.820862
CH2 -3.103033 -0.000000 0.909618
CH2 -3.405813 -0.222988 0.998374
CH2 -3.708592 -0.000000 1.087130
CH2 -4.011371 -0.222988 1.175887
CH2 -4.314151 -0.000000 1.264643
CH2 -4.616930 -0.222988 1.353399
CH2 -4.919710 -0.000000 1.442155
CH2 -5.222489 -0.222988 1.530912
CH2 -5.525268 -0.000000 1.619668
CH2 -5.828047 -0.222988 1.708424
CH3 -6.130827 -0.000000 1.797180
S -2.497475 0.000000 -0.732106
CH2 -2.800254 -0.222988 -0.820862
CH2 -3.103033 0.000000 -0.909618
CH2 -3.405813 -0.222988 -0.998374
CH2 -3.708592 0.000000 -1.087130
CH2 -4.011371 -0.222988 -1.175887
CH2 -4.314151 0.000000 -1.264643
CH2 -4.616930 -0.222988 -1.353399
CH2 -4.919710 0.000000 -1.442155
CH2 -5.222489 -0.222988 -1.530912
CH2 -5.525268 0.000000 -1.619668
CH2 -5.828047 -0.222988 -1.708424
CH3 -6.130827 0.000000 -1.797180
S 0.732106 -2.497475 0.000000
CH2 1.034845 -2.737527 0.000000
CH2 0.909618 -3.103033 0.000000
CH2 1.212358 -3.343086 0.000000
CH2 1.087130 -3.708592 0.000000
CH2 1.389870 -3.948645 0.000000
CH2 1.264643 -4.314151 0.000000
CH2 1.567382 -4.554204 0.000000
CH2 1.442155 -4.919710 0.000000
CH2 1.744895 -5.159762 0.000000
CH2 1.619668 -5.525268 0.000000
CH2 1.922407 -5.765321 0.000000
CH3 1.797180 -6.130827 0.000000
S -0.732106 -2.497475 0.000000
CH2 -0.606879 -2.862981 0.000000
CH2 -0.909618 -3.103033 0.000000
CH2 -0.784391 -3.468539 0.000000
CH2 -1.087130 -3.708592 0.000000
CH2 -0.961903 -4.074098 0.000000
CH2 -1.264643 -4.314151 0.000000
CH2 -1.139416 -4.679657 0.000000
CH2 -1.442155 -4.919710 0.000000
CH2 -1.316928 -5.285216 0.000000
CH2 -1.619668 -5.525268 0.000000
CH2 -1.494441 -5.890774 0.000000
CH3 -1.797180 -6.130827 0.000000
S 0.000000 -2.497475 0.732106
CH2 0.000000 -2.862981 0.606879
CH2 -0.000000 -3.103033 0.909618
CH2 0.000000 -3.468539 0.784391
CH2 -0.000000 -3.708592 1.087130
CH2 0.000000 -4.074098 0.961903
CH2 -0.000000 -4.314151 1.264643
CH2 0.000000 -4.679657 1.139416
CH2 -0.000000 -4.919710 1.442155
CH2 0.000000 -5.285216 1.316928
CH2 -0.000000 -5.525268 1.619668
CH2 0.000000 -5.890774 1.494441
CH3 -0.000000 -6.130827 1.797180
S 0.000000 -2.497475 -0.732106
CH2 0.000000 -2.862981 -0.606879
CH2 -0.000000 -3.103033 -0.909618
CH2 0.000000 -3.468539 -0.784391
CH2 -0.000000 -3.708592 -1.087130
CH2 0.000000 -4.074098 -0.961903
CH2 -0.000000 -4.314151 -1.264643
CH2 0.000000 -4.679657 -1.139416
CH2 -0.000000 -4.919710 -1.442155
CH2 0.000000 -5.285216 -1.316928
CH2 -0.000000 -5.525268 -1.619668
CH2 0.000000 -5.890774 -1.494441
CH3 -0.000000 -6.130827 -1.797180
S 0.732106 0.000000 -2.497475
CH2 0.820862 0.222988 -2.800254
CH2 0.909618 0.000000 -3.103033
CH2 0.998374 0.222988 -3.405813
CH2 1.087130 0.000000 -3.708592
CH2 1.175887 0.222988 -4.011371
CH2 1.264643 0.000000 -4.314151
CH2 1.353399 0.222988 -4.616930
CH2 1.442155 0.000000 -4.919710
CH2 1.530912 0.222988 -5.222489
CH2 1.619668 0.000000 -5.525268
CH2 1.708424 0.222988 -5.828047
CH3 1.797180 0.000000 -6.130827
S -0.732106 0.000000 -2.497475
CH2 -0.820862 -0.222988 -2.800254
CH2 -0.909618 0.000000 -3.103033
CH2 -0.998374 -0.222988 -3.405813
CH2 -1.087130 0.000000 -3.708592
CH2 -1.175887 -0.222988 -4.011371
CH2 -1.264643 0.000000 -4.314151
CH2 -1.353399 -0.222988 -4.616930
CH2 -1.442155 0.000000 -4.919710
CH2 -1.530912 -0.222988 -5.222489
CH2 -1.619668 0.000000 -5.525268
CH2 -1.708424 -0.222988 -5.828047
CH3 -1.797180 0.000000 -6.130827
S 0.000000 0.732106 -2.497475
CH2 0.000000 1.034845 -2.737527
CH2 -0.000000 0.909618 -3.103033
CH2 0.000000 1.212358 -3.343086
CH2 -0.000000 1.087130 -3.708592
CH2 0.000000 1.389870 -3.948645
CH2 -0.000000 1.264643 -4.314151
CH2 0.000000 1.567382 -4.554204
CH2 -0.000000 1.442155 -4.919710
CH2 0.000000 1.744895 -5.159762
CH2 -0.000000 1.619668 -5.525268
CH2 0.000000 1.922407 -5.765321
CH3 -0.000000 1.797180 -6.130827
S 0.000000 -0.732106 -2.497475
CH2 0.000000 -1.034845 -2.737527
CH2 -0.000000 -0.909618 -3.103033
CH2 0.000000 -1.212358 -3.343086
CH2 -0.000000 -1.087130 -3.708592
CH2 0.000000 -1.389870 -3.948645
CH2 -0.000000 -1.264643 -4.314151
CH2 0.000000 -1.567382 -4.554204
CH2 -0.000000 -1.442155 -4.919710
CH2 0.000000 -1.744895 -5.159762
CH2 -0.000000 -1.619668 -5.525268
CH2 0.000000 -1.922407 -5.765321
CH3 -0.000000 -1.797180 -6.130827
S 0.732106 0.000000 2.497475
CH2 0.820862 0.222988 2.800254
CH2 0.909618 0.000000 3.103033
CH2 0.998374 0.222988 3.405813
CH2 1.087130 0.000000 3.708592
CH2 1.175887 0.222988 4.011371
CH2 1.264643 0.000000 4.314151
CH2 1.353399 0.222988 4.616930
CH2 1.442155 0.000000 4.919710
CH2 1.530912 0.222988 5.222489
CH2 1.619668 0.000000 5.525268
CH2 1.708424 0.222988 5.828047
CH3 1.797180 0.000000 6.130827
S -0.732106 0.000000 2.497475
CH2 -0.820862 -0.222988 2.800254
CH2 -0.909618 0.000000 3.103033
CH2 -0.998374 -0.222988 3.405813
CH2 -1.087130 0.000000 3.708592
CH2 -1.175887 -0.222988 4.011371
CH2 -1.264643 0.000000 4.314151
CH2 -1.353399 -0.222988 4.616930
CH2 -1.442155 0.000000 4.919710
CH2 -1.530912 -0.222988 5.222489
CH2 -1.619668 0.000000 5.525268
CH2 -1.708424 -0.222988 5.828047
CH3 -1.797180 0.000000 6.130827
S 0.000000 0.732106 2.497475
CH2 -0.000000 1.034845 2.737527
CH2 0.000000 0.909618 3.103033
CH2 -0.000000 1.212358 3.343086
CH2 0.000000 1.087130 3.708592
CH2 -0.000000 1.389870 3.948645
CH2 0.000000 1.264643 4.314151
CH2 -0.000000 1.567382 4.554204
CH2 0.000000 1.442155 4.919710
CH2 -0.000000 1.744895 5.159762
CH2 0.000000 1.619668 5.525268
CH2 -0.000000 1.922407 5.765321
CH3 0.000000 1.797180 6.130827
S 0.000000 -0.732106 2.497475
CH2 0.000000 -1.034845 2.737527
CH2 -0.000000 -0.909618 3.103033
CH2 0.000000 -1.212358 3.343086
CH2 -0.000000 -1.087130 3.708592
CH2 0.000000 -1.389870 3.948645
CH2 -0.000000 -1.264643 4.314151
CH2 0.000000 -1.567382 4.554204
CH2 -0.000000 -1.442155 4.919710
CH2 0.000000 -1.744895 5.159762
CH2 -0.000000 -1.619668 5.525268
CH2 0.000000 -1.922407 5.765321
CH3 -0.000000 -1.797180 6.130827
S 0.732106 2.497475 0.000000
CH2 0.606879 2.862981 0.000000
CH2 0.909618 3.103033 0.000000
CH2 0.784391 3.468539 0.000000
CH2 1.087130 3.708592 0.000000
CH2 0.961903 4.074098 0.000000
CH2 1.264643 4.314151 0.000000
CH2 1.139416 4.679657 0.000000
CH2 1.442155 4.919710 0.000000
CH2 1.316928 5.285216 0.000000
CH2 1.619668 5.525268 0.000000
CH2 1.494441 5.890774 0.000000
CH3 1.797180 6.130827 0.000000
S -0.732106 2.497475 0.000000
CH2 -1.034845 2.737527 0.000000
CH2 -0.909618 3.103033 0.000000
CH2 -1.212358 3.343086 0.000000
CH2 -1.087130 3.708592 0.000000
CH2 -1.389870 3.948645 0.000000
CH2 -1.264643 4.314151 0.000000
CH2 -1.567382 4.554204 0.000000
CH2 -1.442155 4.919710 0.000000
CH2 -1.744895 5.159762 0.000000
CH2 -1.619668 5.525268 0.000000
CH2 -1.922407 5.765321 0.000000
CH3 -1.797180 6.130827 0.000000
S 0.000000 2.497475 0.732106
CH2 -0.000000 2.862981 0.606879
CH2 0.000000 3.103033 0.909618
CH2 -0.000000 3.468539 0.784391
CH2 0.000000 3.708592 1.087130
CH2 -0.000000 4.074098 0.961903
CH2 0.000000 4.314151 1.264643
CH2 -0.000000 4.679657 1.139416
CH2 0.000000 4.919710 1.442155
CH2 -0.000000 5.285216 1.316928
CH2 0.000000 5.525268 1.619668
CH2 -0.000000 5.890774 1.494441
CH3 0.000000 6.130827 1.797180
S 0.000000 2.497475 -0.732106
CH2 0.000000 2.862981 -0.606879
CH2 -0.000000 3.103033 -0.909618
CH2 0.000000 3.468539 -0.784391
CH2 -0.000000 3.708592 -1.087130
CH2 0.000000 4.074098 -0.961903
CH2 -0.000000 4.314151 -1.264643
CH2 0.000000 4.679657 -1.139416
CH2 -0.000000 4.919710 -1.442155
CH2 0.000000 5.285216 -1.316928
CH2 -0.000000 5.525268 -1.619668
CH2 0.000000 5.890774 -1.494441
CH3 -0.000000 6.130827 -1.797180
S 2.497475 0.732106 0.000000
CH2 2.737527 1.034845 0.000000
CH2 3.103033 0.909618 0.000000
CH2 3.343086 1.212358 0.000000
CH2 3.708592 1.087130 0.000000
CH2 3.948645 1.389870 0.000000
CH2 4.314151 1.264643 0.000000
CH2 4.554204 1.567382 0.000000
CH2 4.919710 1.442155 0.000000
CH2 5.159762 1.744895 0.000000
CH2 5.525268 1.619668 0.000000
CH2 5.765321 1.922407 0.000000
CH3 6.130827 1.797180 0.000000
S 2.497475 -0.732106 0.000000
CH2 2.862981 -0.606879 0.000000
CH2 3.103033 -0.909618 0.000000
CH2 3.468539 -0.784391 0.000000
CH2 3.708592 -1.087130 0.000000
CH2 4.074098 -0.961903 0.000000
CH2 4.314151 -1.264643 0.000000
CH2 4.679657 -1.139416 0.000000
CH2 4.919710 -1.442155 0.000000
CH2 5.285216 -1.316928 0.000000
CH2 5.525268 -1.619668 0.000000
CH2 5.890774 -1.494441 0.000000
CH3 6.130827 -1.797180 0.000000
S 2.497475 0.000000 0.732106
CH2 2.800254 0.222988 0.820862
CH2 3.103033 0.000000 0.909618
CH2 3.405813 0.222988 0.998374
CH2 3.708592 0.000000 1.087130
CH2 4.011371 0.222988 1.175887
CH2 4.314151 0.000000 1.264643
CH2 4.616930 0.222988 1.353399
CH2 4.919710 0.000000 1.442155
CH2 5.222489 0.222988 1.530912
CH2 5.525268 0.000000 1.619668
CH2 5.828047 0.222988 1.708424
CH3 6.130827 0.000000 1.797180
S 2.497475 0.000000 -0.732106
CH2 2.800254 0.222988 -0.820862
CH2 3.103033 0.000000 -0.909618
CH2 3.405813 0.222988 -0.998374
CH2 3.708592 0.000000 -1.087130
CH2 4.011371 0.222988 -1.175887
CH2 4.314151 0.000000 -1.264643
CH2 4.616930 0.222988 -1.353399
CH2 4.919710 0.000000 -1.442155
CH2 5.222489 0.222988 -1.530912
CH2 5.525268 0.000000 -1.619668
CH2 5.828047 0.222988 -1.708424
CH3 6.130827 0.000000 -1.797180
