1163 
 
Au -1.500000 -1.500000 0.000000
Au -1.500000 -0.500000 -1.000000
Au -1.500000 -1.000000 -0.500000
Au -2.000000 -0.500000 -0.500000
Au -2.000000 -1.000000 0.000000
Au -1.500000 -1.000000 0.500000
Au -2.000000 -0.500000 0.500000
Au -1.500000 -0.500000 1.000000
Au -1.500000 0.000000 -1.500000
Au -2.000000 0.000000 -1.000000
Au -1.500000 0.500000 -1.000000
Au -2.000000 0.500000 -0.500000
Au -2.000000 0.000000 0.000000
Au -2.000000 0.500000 0.500000
Au -2.000000 0.000000 1.000000
Au -1.500000 0.500000 1.000000
Au -1.500000 0.000000 1.500000
Au -1.500000 1.000000 -0.500000
Au -2.000000 1.000000 0.000000
Au -1.500000 1.500000 0.000000
Au -1.500000 1.000000 0.500000
Au -0.500000 -1.500000 -1.000000
Au -0.500000 -2.000000 -0.500000
Au -1.000000 -1.500000 -0.500000
Au -1.000000 -2.000000 0.000000
Au -0.500000 -2.000000 0.500000
Au -1.000000 -1.500000 0.500000
Au -0.500000 -1.500000 1.000000
Au -0.500000 -0.500000 -2.000000
Au -0.500000 -1.000000 -1.500000
Au -1.000000 -0.500000 -1.500000
Au -1.000000 -1.000000 -1.000000
Au -1.000000 -1.000000 1.000000
Au -0.500000 -1.000000 1.500000
Au -1.000000 -0.500000 1.500000
Au -0.500000 -0.500000 2.000000
Au -1.000000 0.000000 -2.000000
Au -0.500000 0.500000 -2.000000
Au -1.000000 0.500000 -1.500000
Au -1.000000 0.500000 1.500000
Au -1.000000 0.000000 2.000000
Au -0.500000 0.500000 2.000000
Au -0.500000 1.000000 -1.500000
Au -1.000000 1.000000 -1.000000
Au -0.500000 1.500000 -1.000000
Au -1.000000 1.500000 -0.500000
Au -1.000000 1.500000 0.500000
Au -1.000000 1.000000 1.000000
Au -0.500000 1.500000 1.000000
Au -0.500000 1.000000 1.500000
Au -0.500000 2.000000 -0.500000
Au -1.000000 2.000000 0.000000
Au -0.500000 2.000000 0.500000
Au 0.000000 -1.500000 -1.500000
Au 0.000000 -2.000000 -1.000000
Au 0.500000 -1.500000 -1.000000
Au 0.500000 -2.000000 -0.500000
Au 0.000000 -2.000000 0.000000
Au 0.500000 -2.000000 0.500000
Au 0.000000 -2.000000 1.000000
Au 0.500000 -1.500000 1.000000
Au 0.000000 -1.500000 1.500000
Au 0.000000 -1.000000 -2.000000
Au 0.500000 -0.500000 -2.000000
Au 0.500000 -1.000000 -1.500000
Au 0.500000 -1.000000 1.500000
Au 0.000000 -1.000000 2.000000
Au 0.500000 -0.500000 2.000000
Au 0.000000 0.000000 -2.000000
Au 0.500000 0.500000 -2.000000
Au 0.000000 0.000000 2.000000
Au 0.500000 0.500000 2.000000
Au 0.000000 1.000000 -2.000000
Au 0.500000 1.000000 -1.500000
Au 0.000000 1.500000 -1.500000
Au 0.500000 1.500000 -1.000000
Au 0.500000 1.500000 1.000000
Au 0.500000 1.000000 1.500000
Au 0.000000 1.500000 1.500000
Au 0.000000 1.000000 2.000000
Au 0.000000 2.000000 -1.000000
Au 0.500000 2.000000 -0.500000
Au 0.000000 2.000000 0.000000
Au 0.500000 2.000000 0.500000
Au 0.000000 2.000000 1.000000
Au 1.000000 -1.500000 -0.500000
Au 1.000000 -2.000000 0.000000
Au 1.500000 -1.500000 0.000000
Au 1.000000 -1.500000 0.500000
Au 1.000000 -0.500000 -1.500000
Au 1.000000 -1.000000 -1.000000
Au 1.500000 -0.500000 -1.000000
Au 1.500000 -1.000000 -0.500000
Au 1.500000 -1.000000 0.500000
Au 1.000000 -1.000000 1.000000
Au 1.500000 -0.500000 1.000000
Au 1.000000 -0.500000 1.500000
Au 1.000000 0.000000 -2.000000
Au 1.500000 0.000000 -1.500000
Au 1.000000 0.500000 -1.500000
Au 1.500000 0.500000 -1.000000
Au 1.500000 0.500000 1.000000
Au 1.500000 0.000000 1.500000
Au 1.000000 0.500000 1.500000
Au 1.000000 0.000000 2.000000
Au 1.000000 1.000000 -1.000000
Au 1.500000 1.000000 -0.500000
Au 1.000000 1.500000 -0.500000
Au 1.500000 1.500000 0.000000
Au 1.500000 1.000000 0.500000
Au 1.000000 1.500000 0.500000
Au 1.000000 1.000000 1.000000
Au 1.000000 2.000000 0.000000
Au 2.000000 -0.500000 -0.500000
Au 2.000000 -1.000000 0.000000
Au 2.000000 -0.500000 0.500000
Au 2.000000 0.000000 -1.000000
Au 2.000000 0.500000 -0.500000
Au 2.000000 0.000000 0.000000
Au 2.000000 0.500000 0.500000
Au 2.000000 0.000000 1.000000
Au 2.000000 1.000000 0.000000
V 0.000000 0.000000 0.000000
S -1.145795 -1.145795 -1.145795
CH2 -1.229405 -1.509818 -1.244656
CH2 -1.510116 -1.510132 -1.510132
CH2 -1.593725 -1.874155 -1.608993
CH2 -1.874436 -1.874469 -1.874469
CH2 -1.958045 -2.238492 -1.973330
CH2 -2.238756 -2.238806 -2.238806
CH2 -2.322366 -2.602829 -2.337667
CH2 -2.603077 -2.603143 -2.603143
CH2 -2.686686 -2.967166 -2.702004
CH2 -2.967397 -2.967480 -2.967480
CH2 -3.051006 -3.331503 -3.066340
CH3 -3.331717 -3.331817 -3.331817
S -1.145795 -1.145795 1.145795
CH2 -1.229405 -1.509818 1.244656
CH2 -1.510116 -1.510132 1.510132
CH2 -1.593725 -1.874155 1.608993
CH2 -1.874436 -1.874469 1.874469
CH2 -1.958045 -2.238492 1.973330
CH2 -2.238756 -2.238806 2.238806
CH2 -2.322366 -2.602829 2.337667
CH2 -2.603077 -2.603143 2.603143
CH2 -2.686686 -2.967166 2.702004
CH2 -2.967397 -2.967480 2.967480
CH2 -3.051006 -3.331503 3.066340
CH3 -3.331717 -3.331817 3.331817
S -1.145795 1.145795 -1.145795
CH2 -1.426506 1.146110 -1.411272
CH2 -1.510116 1.510132 -1.510132
CH2 -1.790827 1.510446 -1.775609
CH2 -1.874436 1.874469 -1.874469
CH2 -2.155147 1.874784 -2.139946
CH2 -2.238756 2.238806 -2.238806
CH2 -2.519467 2.239120 -2.504283
CH2 -2.603077 2.603143 -2.603143
CH2 -2.883787 2.603457 -2.868620
CH2 -2.967397 2.967480 -2.967480
CH2 -3.248108 2.967794 -3.232957
CH3 -3.331717 3.331817 -3.331817
S -1.145795 1.145795 1.145795
CH2 -1.426506 1.146110 1.411272
CH2 -1.510116 1.510132 1.510132
CH2 -1.790827 1.510446 1.775609
CH2 -1.874436 1.874469 1.874469
CH2 -2.155147 1.874784 2.139946
CH2 -2.238756 2.238806 2.238806
CH2 -2.519467 2.239120 2.504283
CH2 -2.603077 2.603143 2.603143
CH2 -2.883787 2.603457 2.868620
CH2 -2.967397 2.967480 2.967480
CH2 -3.248108 2.967794 3.232957
CH3 -3.331717 3.331817 3.331817
S 1.145795 -1.145795 -1.145795
CH2 1.426506 -1.146110 -1.411272
CH2 1.510116 -1.510132 -1.510132
CH2 1.790827 -1.510446 -1.775609
CH2 1.874436 -1.874469 -1.874469
CH2 2.155147 -1.874784 -2.139946
CH2 2.238756 -2.238806 -2.238806
CH2 2.519467 -2.239120 -2.504283
CH2 2.603077 -2.603143 -2.603143
CH2 2.883787 -2.603457 -2.868620
CH2 2.967397 -2.967480 -2.967480
CH2 3.248108 -2.967794 -3.232957
CH3 3.331717 -3.331817 -3.331817
S 1.145795 -1.145795 1.145795
CH2 1.426506 -1.146110 1.411272
CH2 1.510116 -1.510132 1.510132
CH2 1.790827 -1.510446 1.775609
CH2 1.874436 -1.874469 1.874469
CH2 2.155147 -1.874784 2.139946
CH2 2.238756 -2.238806 2.238806
CH2 2.519467 -2.239120 2.504283
CH2 2.603077 -2.603143 2.603143
CH2 2.883787 -2.603457 2.868620
CH2 2.967397 -2.967480 2.967480
CH2 3.248108 -2.967794 3.232957
CH3 3.331717 -3.331817 3.331817
S 1.145795 1.145795 -1.145795
CH2 1.229405 1.509818 -1.244656
CH2 1.510116 1.510132 -1.510132
CH2 1.593725 1.874155 -1.608993
CH2 1.874436 1.874469 -1.874469
CH2 1.958045 2.238492 -1.973330
CH2 2.238756 2.238806 -2.238806
CH2 2.322366 2.602829 -2.337667
CH2 2.603077 2.603143 -2.603143
CH2 2.686686 2.967166 -2.702004
CH2 2.967397 2.967480 -2.967480
CH2 3.051006 3.331503 -3.066340
CH3 3.331717 3.331817 -3.331817
S 1.145795 1.145795 1.145795
CH2 1.229405 1.509818 1.244656
CH2 1.510116 1.510132 1.510132
CH2 1.593725 1.874155 1.608993
CH2 1.874436 1.874469 1.874469
CH2 1.958045 2.238492 1.973330
CH2 2.238756 2.238806 2.238806
CH2 2.322366 2.602829 2.337667
CH2 2.603077 2.603143 2.603143
CH2 2.686686 2.967166 2.702004
CH2 2.967397 2.967480 2.967480
CH2 3.051006 3.331503 3.066340
CH3 3.331717 3.331817 3.331817
S -0.393059 -1.927780 -1.160420
CH2 -0.390842 -2.313658 -1.141183
CH2 -0.501617 -2.460368 -1.481009
CH2 -0.499399 -2.846245 -1.461772
CH2 -0.610174 -2.992956 -1.801598
CH2 -0.607957 -3.378833 -1.782362
CH2 -0.718731 -3.525544 -2.122187
CH2 -0.716514 -3.911421 -2.102951
CH2 -0.827288 -4.058132 -2.442777
CH2 -0.825071 -4.444009 -2.423540
CH2 -0.935846 -4.590719 -2.763366
CH2 -0.933628 -4.976597 -2.744129
CH3 -1.044403 -5.123307 -3.083955
S -0.393059 -1.160420 -1.927780
CH2 -0.442416 -1.512156 -2.079840
CH2 -0.501617 -1.481009 -2.460368
CH2 -0.550973 -1.832745 -2.612428
CH2 -0.610174 -1.801598 -2.992956
CH2 -0.659531 -2.153334 -3.145015
CH2 -0.718731 -2.122187 -3.525544
CH2 -0.768088 -2.473923 -3.677603
CH2 -0.827288 -2.442777 -4.058132
CH2 -0.876645 -2.794513 -4.210191
CH2 -0.935846 -2.763366 -4.590719
CH2 -0.985203 -3.115102 -4.742779
CH3 -1.044403 -3.083955 -5.123307
S -0.393059 -1.160420 1.927780
CH2 -0.442416 -1.512156 2.079840
CH2 -0.501617 -1.481009 2.460368
CH2 -0.550973 -1.832745 2.612428
CH2 -0.610174 -1.801598 2.992956
CH2 -0.659531 -2.153334 3.145015
CH2 -0.718731 -2.122187 3.525544
CH2 -0.768088 -2.473923 3.677603
CH2 -0.827288 -2.442777 4.058132
CH2 -0.876645 -2.794513 4.210191
CH2 -0.935846 -2.763366 4.590719
CH2 -0.985203 -3.115102 4.742779
CH3 -1.044403 -3.083955 5.123307
S -0.393059 -1.927780 1.160420
CH2 -0.390842 -2.313658 1.141183
CH2 -0.501617 -2.460368 1.481009
CH2 -0.499399 -2.846245 1.461772
CH2 -0.610174 -2.992956 1.801598
CH2 -0.607957 -3.378833 1.782362
CH2 -0.718731 -3.525544 2.122187
CH2 -0.716514 -3.911421 2.102951
CH2 -0.827288 -4.058132 2.442777
CH2 -0.825071 -4.444009 2.423540
CH2 -0.935846 -4.590719 2.763366
CH2 -0.933628 -4.976597 2.744129
CH3 -1.044403 -5.123307 3.083955
S -0.393059 1.927780 -1.160420
CH2 -0.503834 2.074490 -1.500245
CH2 -0.501617 2.460368 -1.481009
CH2 -0.612391 2.607078 -1.820835
CH2 -0.610174 2.992956 -1.801598
CH2 -0.720949 3.139666 -2.141424
CH2 -0.718731 3.525544 -2.122187
CH2 -0.829506 3.672254 -2.462013
CH2 -0.827288 4.058132 -2.442777
CH2 -0.938063 4.204842 -2.782602
CH2 -0.935846 4.590719 -2.763366
CH2 -1.046620 4.737430 -3.103191
CH3 -1.044403 5.123307 -3.083955
S -0.393059 1.927780 1.160420
CH2 -0.503834 2.074490 1.500245
CH2 -0.501617 2.460368 1.481009
CH2 -0.612391 2.607078 1.820835
CH2 -0.610174 2.992956 1.801598
CH2 -0.720949 3.139666 2.141424
CH2 -0.718731 3.525544 2.122187
CH2 -0.829506 3.672254 2.462013
CH2 -0.827288 4.058132 2.442777
CH2 -0.938063 4.204842 2.782602
CH2 -0.935846 4.590719 2.763366
CH2 -1.046620 4.737430 3.103191
CH3 -1.044403 5.123307 3.083955
S -0.393059 1.160420 -1.927780
CH2 -0.452260 1.129273 -2.308308
CH2 -0.501617 1.481009 -2.460368
CH2 -0.560817 1.449862 -2.840896
CH2 -0.610174 1.801598 -2.992956
CH2 -0.669374 1.770451 -3.373484
CH2 -0.718731 2.122187 -3.525544
CH2 -0.777932 2.091041 -3.906072
CH2 -0.827288 2.442777 -4.058132
CH2 -0.886489 2.411630 -4.438660
CH2 -0.935846 2.763366 -4.590719
CH2 -0.995046 2.732219 -4.971247
CH3 -1.044403 3.083955 -5.123307
S -0.393059 1.160420 1.927780
CH2 -0.452260 1.129273 2.308308
CH2 -0.501617 1.481009 2.460368
CH2 -0.560817 1.449862 2.840896
CH2 -0.610174 1.801598 2.992956
CH2 -0.669374 1.770451 3.373484
CH2 -0.718731 2.122187 3.525544
CH2 -0.777932 2.091041 3.906072
CH2 -0.827288 2.442777 4.058132
CH2 -0.886489 2.411630 4.438660
CH2 -0.935846 2.763366 4.590719
CH2 -0.995046 2.732219 4.971247
CH3 -1.044403 3.083955 5.123307
S -1.927780 -0.393059 -1.160420
CH2 -2.156585 -0.666837 -1.308644
CH2 -2.460361 -0.501650 -1.481009
CH2 -2.689166 -0.775428 -1.629233
CH2 -2.992942 -0.610241 -1.801598
CH2 -3.221747 -0.884018 -1.949822
CH2 -3.525523 -0.718831 -2.122187
CH2 -3.754328 -0.992609 -2.270412
CH2 -4.058104 -0.827422 -2.442777
CH2 -4.286909 -1.101199 -2.591001
CH2 -4.590686 -0.936012 -2.763366
CH2 -4.819490 -1.209790 -2.911590
CH3 -5.123267 -1.044603 -3.083955
S -1.160420 -0.393059 -1.927780
CH2 -1.286816 -0.666412 -2.169811
CH2 -1.480998 -0.501650 -2.460368
CH2 -1.607393 -0.775003 -2.702399
CH2 -1.801576 -0.610241 -2.992956
CH2 -1.927971 -0.883593 -3.234987
CH2 -2.122154 -0.718831 -3.525544
CH2 -2.248549 -0.992184 -3.767575
CH2 -2.442732 -0.827422 -4.058132
CH2 -2.569127 -1.100774 -4.300163
CH2 -2.763309 -0.936012 -4.590719
CH2 -2.889705 -1.209365 -4.832751
CH3 -3.083887 -1.044603 -5.123307
S -1.160420 -0.393059 1.927780
CH2 -1.286816 -0.666412 2.169811
CH2 -1.480998 -0.501650 2.460368
CH2 -1.607393 -0.775003 2.702399
CH2 -1.801576 -0.610241 2.992956
CH2 -1.927971 -0.883593 3.234987
CH2 -2.122154 -0.718831 3.525544
CH2 -2.248549 -0.992184 3.767575
CH2 -2.442732 -0.827422 4.058132
CH2 -2.569127 -1.100774 4.300163
CH2 -2.763309 -0.936012 4.590719
CH2 -2.889705 -1.209365 4.832751
CH3 -3.083887 -1.044603 5.123307
S -1.927780 -0.393059 1.160420
CH2 -2.156585 -0.666837 1.308644
CH2 -2.460361 -0.501650 1.481009
CH2 -2.689166 -0.775428 1.629233
CH2 -2.992942 -0.610241 1.801598
CH2 -3.221747 -0.884018 1.949822
CH2 -3.525523 -0.718831 2.122187
CH2 -3.754328 -0.992609 2.270412
CH2 -4.058104 -0.827422 2.442777
CH2 -4.286909 -1.101199 2.591001
CH2 -4.590686 -0.936012 2.763366
CH2 -4.819490 -1.209790 2.911590
CH3 -5.123267 -1.044603 3.083955
S -1.927780 -1.160420 -0.393059
CH2 -2.082849 -1.512780 -0.425807
CH2 -2.460361 -1.481009 -0.501650
CH2 -2.615431 -1.833369 -0.534398
CH2 -2.992942 -1.801598 -0.610241
CH2 -3.148012 -2.153958 -0.642988
CH2 -3.525523 -2.122187 -0.718831
CH2 -3.680593 -2.474547 -0.751579
CH2 -4.058104 -2.442777 -0.827422
CH2 -4.213174 -2.795136 -0.860169
CH2 -4.590686 -2.763366 -0.936012
CH2 -4.745755 -3.115726 -0.968760
CH3 -5.123267 -3.083955 -1.044603
S -1.160420 -1.927780 -0.393059
CH2 -1.142136 -2.313676 -0.387937
CH2 -1.480998 -2.460368 -0.501650
CH2 -1.462714 -2.846264 -0.496528
CH2 -1.801576 -2.992956 -0.610241
CH2 -1.783292 -3.378852 -0.605118
CH2 -2.122154 -3.525544 -0.718831
CH2 -2.103869 -3.911440 -0.713709
CH2 -2.442732 -4.058132 -0.827422
CH2 -2.424447 -4.444028 -0.822299
CH2 -2.763309 -4.590719 -0.936012
CH2 -2.745026 -4.976616 -0.930890
CH3 -3.083887 -5.123307 -1.044603
S -1.927780 -1.160420 0.393059
CH2 -2.082849 -1.512780 0.425807
CH2 -2.460361 -1.481009 0.501650
CH2 -2.615431 -1.833369 0.534398
CH2 -2.992942 -1.801598 0.610241
CH2 -3.148012 -2.153958 0.642988
CH2 -3.525523 -2.122187 0.718831
CH2 -3.680593 -2.474547 0.751579
CH2 -4.058104 -2.442777 0.827422
CH2 -4.213174 -2.795136 0.860169
CH2 -4.590686 -2.763366 0.936012
CH2 -4.745755 -3.115726 0.968760
CH3 -5.123267 -3.083955 1.044603
S -1.160420 -1.927780 0.393059
CH2 -1.142136 -2.313676 0.387937
CH2 -1.480998 -2.460368 0.501650
CH2 -1.462714 -2.846264 0.496528
CH2 -1.801576 -2.992956 0.610241
CH2 -1.783292 -3.378852 0.605118
CH2 -2.122154 -3.525544 0.718831
CH2 -2.103869 -3.911440 0.713709
CH2 -2.442732 -4.058132 0.827422
CH2 -2.424447 -4.444028 0.822299
CH2 -2.763309 -4.590719 0.936012
CH2 -2.745026 -4.976616 0.930890
CH3 -3.083887 -5.123307 1.044603
S -1.160420 1.927780 -0.393059
CH2 -1.499282 2.074471 -0.506772
CH2 -1.480998 2.460368 -0.501650
CH2 -1.819860 2.607060 -0.615363
CH2 -1.801576 2.992956 -0.610241
CH2 -2.140438 3.139647 -0.723954
CH2 -2.122154 3.525544 -0.718831
CH2 -2.461015 3.672235 -0.832544
CH2 -2.442732 4.058132 -0.827422
CH2 -2.781593 4.204823 -0.941135
CH2 -2.763309 4.590719 -0.936012
CH2 -3.102171 4.737411 -1.049725
CH3 -3.083887 5.123307 -1.044603
S -1.160420 1.927780 0.393059
CH2 -1.499282 2.074471 0.506772
CH2 -1.480998 2.460368 0.501650
CH2 -1.819860 2.607060 0.615363
CH2 -1.801576 2.992956 0.610241
CH2 -2.140438 3.139647 0.723954
CH2 -2.122154 3.525544 0.718831
CH2 -2.461015 3.672235 0.832544
CH2 -2.442732 4.058132 0.827422
CH2 -2.781593 4.204823 0.941135
CH2 -2.763309 4.590719 0.936012
CH2 -3.102171 4.737411 1.049725
CH3 -3.083887 5.123307 1.044603
S -1.927780 1.160420 -0.393059
CH2 -2.305292 1.128649 -0.468902
CH2 -2.460361 1.481009 -0.501650
CH2 -2.837873 1.449238 -0.577493
CH2 -2.992942 1.801598 -0.610241
CH2 -3.370454 1.769828 -0.686083
CH2 -3.525523 2.122187 -0.718831
CH2 -3.903035 2.090417 -0.794674
CH2 -4.058104 2.442777 -0.827422
CH2 -4.435616 2.411006 -0.903264
CH2 -4.590686 2.763366 -0.936012
CH2 -4.968197 2.731595 -1.011855
CH3 -5.123267 3.083955 -1.044603
S -1.927780 0.393059 -1.160420
CH2 -2.231556 0.227872 -1.332785
CH2 -2.460361 0.501650 -1.481009
CH2 -2.764137 0.336463 -1.653374
CH2 -2.992942 0.610241 -1.801598
CH2 -3.296718 0.445053 -1.973963
CH2 -3.525523 0.718831 -2.122187
CH2 -3.829299 0.553644 -2.294552
CH2 -4.058104 0.827422 -2.442777
CH2 -4.361881 0.662234 -2.615142
CH2 -4.590686 0.936012 -2.763366
CH2 -4.894462 0.770825 -2.935731
CH3 -5.123267 1.044603 -3.083955
S -1.160420 0.393059 -1.927780
CH2 -1.354602 0.228297 -2.218337
CH2 -1.480998 0.501650 -2.460368
CH2 -1.675180 0.336888 -2.750925
CH2 -1.801576 0.610241 -2.992956
CH2 -1.995758 0.445479 -3.283513
CH2 -2.122154 0.718831 -3.525544
CH2 -2.316336 0.554069 -3.816101
CH2 -2.442732 0.827422 -4.058132
CH2 -2.636914 0.662660 -4.348688
CH2 -2.763309 0.936012 -4.590719
CH2 -2.957491 0.771250 -4.881276
CH3 -3.083887 1.044603 -5.123307
S -1.160420 0.393059 1.927780
CH2 -1.354602 0.228297 2.218337
CH2 -1.480998 0.501650 2.460368
CH2 -1.675180 0.336888 2.750925
CH2 -1.801576 0.610241 2.992956
CH2 -1.995758 0.445479 3.283513
CH2 -2.122154 0.718831 3.525544
CH2 -2.316336 0.554069 3.816101
CH2 -2.442732 0.827422 4.058132
CH2 -2.636914 0.662660 4.348688
CH2 -2.763309 0.936012 4.590719
CH2 -2.957491 0.771250 4.881276
CH3 -3.083887 1.044603 5.123307
S -1.927780 0.393059 1.160420
CH2 -2.231556 0.227872 1.332785
CH2 -2.460361 0.501650 1.481009
CH2 -2.764137 0.336463 1.653374
CH2 -2.992942 0.610241 1.801598
CH2 -3.296718 0.445053 1.973963
CH2 -3.525523 0.718831 2.122187
CH2 -3.829299 0.553644 2.294552
CH2 -4.058104 0.827422 2.442777
CH2 -4.361881 0.662234 2.615142
CH2 -4.590686 0.936012 2.763366
CH2 -4.894462 0.770825 2.935731
CH3 -5.123267 1.044603 3.083955
S -1.927780 1.160420 0.393059
CH2 -2.305292 1.128649 0.468902
CH2 -2.460361 1.481009 0.501650
CH2 -2.837873 1.449238 0.577493
CH2 -2.992942 1.801598 0.610241
CH2 -3.370454 1.769828 0.686083
CH2 -3.525523 2.122187 0.718831
CH2 -3.903035 2.090417 0.794674
CH2 -4.058104 2.442777 0.827422
CH2 -4.435616 2.411006 0.903264
CH2 -4.590686 2.763366 0.936012
CH2 -4.968197 2.731595 1.011855
CH3 -5.123267 3.083955 1.044603
S 1.927780 -0.393059 -1.160420
CH2 2.231556 -0.227872 -1.332785
CH2 2.460361 -0.501650 -1.481009
CH2 2.764137 -0.336463 -1.653374
CH2 2.992942 -0.610241 -1.801598
CH2 3.296718 -0.445053 -1.973963
CH2 3.525523 -0.718831 -2.122187
CH2 3.829299 -0.553644 -2.294552
CH2 4.058104 -0.827422 -2.442777
CH2 4.361881 -0.662234 -2.615142
CH2 4.590686 -0.936012 -2.763366
CH2 4.894462 -0.770825 -2.935731
CH3 5.123267 -1.044603 -3.083955
S 1.927780 -0.393059 1.160420
CH2 2.231556 -0.227872 1.332785
CH2 2.460361 -0.501650 1.481009
CH2 2.764137 -0.336463 1.653374
CH2 2.992942 -0.610241 1.801598
CH2 3.296718 -0.445053 1.973963
CH2 3.525523 -0.718831 2.122187
CH2 3.829299 -0.553644 2.294552
CH2 4.058104 -0.827422 2.442777
CH2 4.361881 -0.662234 2.615142
CH2 4.590686 -0.936012 2.763366
CH2 4.894462 -0.770825 2.935731
CH3 5.123267 -1.044603 3.083955
S 1.927780 -1.160420 -0.393059
CH2 2.305292 -1.128649 -0.468902
CH2 2.460361 -1.481009 -0.501650
CH2 2.837873 -1.449238 -0.577493
CH2 2.992942 -1.801598 -0.610241
CH2 3.370454 -1.769828 -0.686083
CH2 3.525523 -2.122187 -0.718831
CH2 3.903035 -2.090417 -0.794674
CH2 4.058104 -2.442777 -0.827422
CH2 4.435616 -2.411006 -0.903264
CH2 4.590686 -2.763366 -0.936012
CH2 4.968197 -2.731595 -1.011855
CH3 5.123267 -3.083955 -1.044603
S 1.927780 -1.160420 0.393059
CH2 2.305292 -1.128649 0.468902
CH2 2.460361 -1.481009 0.501650
CH2 2.837873 -1.449238 0.577493
CH2 2.992942 -1.801598 0.610241
CH2 3.370454 -1.769828 0.686083
CH2 3.525523 -2.122187 0.718831
CH2 3.903035 -2.090417 0.794674
CH2 4.058104 -2.442777 0.827422
CH2 4.435616 -2.411006 0.903264
CH2 4.590686 -2.763366 0.936012
CH2 4.968197 -2.731595 1.011855
CH3 5.123267 -3.083955 1.044603
S 1.927780 1.160420 -0.393059
CH2 2.082849 1.512780 -0.425807
CH2 2.460361 1.481009 -0.501650
CH2 2.615431 1.833369 -0.534398
CH2 2.992942 1.801598 -0.610241
CH2 3.148012 2.153958 -0.642988
CH2 3.525523 2.122187 -0.718831
CH2 3.680593 2.474547 -0.751579
CH2 4.058104 2.442777 -0.827422
CH2 4.213174 2.795136 -0.860169
CH2 4.590686 2.763366 -0.936012
CH2 4.745755 3.115726 -0.968760
CH3 5.123267 3.083955 -1.044603
S 1.927780 0.393059 -1.160420
CH2 2.156585 0.666837 -1.308644
CH2 2.460361 0.501650 -1.481009
CH2 2.689166 0.775428 -1.629233
CH2 2.992942 0.610241 -1.801598
CH2 3.221747 0.884018 -1.949822
CH2 3.525523 0.718831 -2.122187
CH2 3.754328 0.992609 -2.270412
CH2 4.058104 0.827422 -2.442777
CH2 4.286909 1.101199 -2.591001
CH2 4.590686 0.936012 -2.763366
CH2 4.819490 1.209790 -2.911590
CH3 5.123267 1.044603 -3.083955
S 1.927780 0.393059 1.160420
CH2 2.156585 0.666837 1.308644
CH2 2.460361 0.501650 1.481009
CH2 2.689166 0.775428 1.629233
CH2 2.992942 0.610241 1.801598
CH2 3.221747 0.884018 1.949822
CH2 3.525523 0.718831 2.122187
CH2 3.754328 0.992609 2.270412
CH2 4.058104 0.827422 2.442777
CH2 4.286909 1.101199 2.591001
CH2 4.590686 0.936012 2.763366
CH2 4.819490 1.209790 2.911590
CH3 5.123267 1.044603 3.083955
S 1.927780 1.160420 0.393059
CH2 2.082849 1.512780 0.425807
CH2 2.460361 1.481009 0.501650
CH2 2.615431 1.833369 0.534398
CH2 2.992942 1.801598 0.610241
CH2 3.148012 2.153958 0.642988
CH2 3.525523 2.122187 0.718831
CH2 3.680593 2.474547 0.751579
CH2 4.058104 2.442777 0.827422
CH2 4.213174 2.795136 0.860169
CH2 4.590686 2.763366 0.936012
CH2 4.745755 3.115726 0.968760
CH3 5.123267 3.083955 1.044603
S 1.160420 -0.393059 -1.927780
CH2 1.354602 -0.228297 -2.218337
CH2 1.480998 -0.501650 -2.460368
CH2 1.675180 -0.336888 -2.750925
CH2 1.801576 -0.610241 -2.992956
CH2 1.995758 -0.445479 -3.283513
CH2 2.122154 -0.718831 -3.525544
CH2 2.316336 -0.554069 -3.816101
CH2 2.442732 -0.827422 -4.058132
CH2 2.636914 -0.662660 -4.348688
CH2 2.763309 -0.936012 -4.590719
CH2 2.957491 -0.771250 -4.881276
CH3 3.083887 -1.044603 -5.123307
S 1.160420 -0.393059 1.927780
CH2 1.354602 -0.228297 2.218337
CH2 1.480998 -0.501650 2.460368
CH2 1.675180 -0.336888 2.750925
CH2 1.801576 -0.610241 2.992956
CH2 1.995758 -0.445479 3.283513
CH2 2.122154 -0.718831 3.525544
CH2 2.316336 -0.554069 3.816101
CH2 2.442732 -0.827422 4.058132
CH2 2.636914 -0.662660 4.348688
CH2 2.763309 -0.936012 4.590719
CH2 2.957491 -0.771250 4.881276
CH3 3.083887 -1.044603 5.123307
S 1.160420 -1.927780 -0.393059
CH2 1.499282 -2.074471 -0.506772
CH2 1.480998 -2.460368 -0.501650
CH2 1.819860 -2.607060 -0.615363
CH2 1.801576 -2.992956 -0.610241
CH2 2.140438 -3.139647 -0.723954
CH2 2.122154 -3.525544 -0.718831
CH2 2.461015 -3.672235 -0.832544
CH2 2.442732 -4.058132 -0.827422
CH2 2.781593 -4.204823 -0.941135
CH2 2.763309 -4.590719 -0.936012
CH2 3.102171 -4.737411 -1.049725
CH3 3.083887 -5.123307 -1.044603
S 0.393059 -1.927780 -1.160420
CH2 0.503834 -2.074490 -1.500245
CH2 0.501617 -2.460368 -1.481009
CH2 0.612391 -2.607078 -1.820835
CH2 0.610174 -2.992956 -1.801598
CH2 0.720949 -3.139666 -2.141424
CH2 0.718731 -3.525544 -2.122187
CH2 0.829506 -3.672254 -2.462013
CH2 0.827288 -4.058132 -2.442777
CH2 0.938063 -4.204842 -2.782602
CH2 0.935846 -4.590719 -2.763366
CH2 1.046620 -4.737430 -3.103191
CH3 1.044403 -5.123307 -3.083955
S 0.393059 -1.160420 -1.927780
CH2 0.452260 -1.129273 -2.308308
CH2 0.501617 -1.481009 -2.460368
CH2 0.560817 -1.449862 -2.840896
CH2 0.610174 -1.801598 -2.992956
CH2 0.669374 -1.770451 -3.373484
CH2 0.718731 -2.122187 -3.525544
CH2 0.777932 -2.091041 -3.906072
CH2 0.827288 -2.442777 -4.058132
CH2 0.886489 -2.411630 -4.438660
CH2 0.935846 -2.763366 -4.590719
CH2 0.995046 -2.732219 -4.971247
CH3 1.044403 -3.083955 -5.123307
S 0.393059 -1.160420 1.927780
CH2 0.452260 -1.129273 2.308308
CH2 0.501617 -1.481009 2.460368
CH2 0.560817 -1.449862 2.840896
CH2 0.610174 -1.801598 2.992956
CH2 0.669374 -1.770451 3.373484
CH2 0.718731 -2.122187 3.525544
CH2 0.777932 -2.091041 3.906072
CH2 0.827288 -2.442777 4.058132
CH2 0.886489 -2.411630 4.438660
CH2 0.935846 -2.763366 4.590719
CH2 0.995046 -2.732219 4.971247
CH3 1.044403 -3.083955 5.123307
S 0.393059 -1.927780 1.160420
CH2 0.503834 -2.074490 1.500245
CH2 0.501617 -2.460368 1.481009
CH2 0.612391 -2.607078 1.820835
CH2 0.610174 -2.992956 1.801598
CH2 0.720949 -3.139666 2.141424
CH2 0.718731 -3.525544 2.122187
CH2 0.829506 -3.672254 2.462013
CH2 0.827288 -4.058132 2.442777
CH2 0.938063 -4.204842 2.782602
CH2 0.935846 -4.590719 2.763366
CH2 1.046620 -4.737430 3.103191
CH3 1.044403 -5.123307 3.083955
S 1.160420 -1.927780 0.393059
CH2 1.499282 -2.074471 0.506772
CH2 1.480998 -2.460368 0.501650
CH2 1.819860 -2.607060 0.615363
CH2 1.801576 -2.992956 0.610241
CH2 2.140438 -3.139647 0.723954
CH2 2.122154 -3.525544 0.718831
CH2 2.461015 -3.672235 0.832544
CH2 2.442732 -4.058132 0.827422
CH2 2.781593 -4.204823 0.941135
CH2 2.763309 -4.590719 0.936012
CH2 3.102171 -4.737411 1.049725
CH3 3.083887 -5.123307 1.044603
S 1.160420 1.927780 -0.393059
CH2 1.142136 2.313676 -0.387937
CH2 1.480998 2.460368 -0.501650
CH2 1.462714 2.846264 -0.496528
CH2 1.801576 2.992956 -0.610241
CH2 1.783292 3.378852 -0.605118
CH2 2.122154 3.525544 -0.718831
CH2 2.103869 3.911440 -0.713709
CH2 2.442732 4.058132 -0.827422
CH2 2.424447 4.444028 -0.822299
CH2 2.763309 4.590719 -0.936012
CH2 2.745026 4.976616 -0.930890
CH3 3.083887 5.123307 -1.044603
S 0.393059 1.927780 -1.160420
CH2 0.390842 2.313658 -1.141183
CH2 0.501617 2.460368 -1.481009
CH2 0.499399 2.846245 -1.461772
CH2 0.610174 2.992956 -1.801598
CH2 0.607957 3.378833 -1.782362
CH2 0.718731 3.525544 -2.122187
CH2 0.716514 3.911421 -2.102951
CH2 0.827288 4.058132 -2.442777
CH2 0.825071 4.444009 -2.423540
CH2 0.935846 4.590719 -2.763366
CH2 0.933628 4.976597 -2.744129
CH3 1.044403 5.123307 -3.083955
S 0.393059 1.927780 1.160420
CH2 0.390842 2.313658 1.141183
CH2 0.501617 2.460368 1.481009
CH2 0.499399 2.846245 1.461772
CH2 0.610174 2.992956 1.801598
CH2 0.607957 3.378833 1.782362
CH2 0.718731 3.525544 2.122187
CH2 0.716514 3.911421 2.102951
CH2 0.827288 4.058132 2.442777
CH2 0.825071 4.444009 2.423540
CH2 0.935846 4.590719 2.763366
CH2 0.933628 4.976597 2.744129
CH3 1.044403 5.123307 3.083955
S 1.160420 1.927780 0.393059
CH2 1.142136 2.313676 0.387937
CH2 1.480998 2.460368 0.501650
CH2 1.462714 2.846264 0.496528
CH2 1.801576 2.992956 0.610241
CH2 1.783292 3.378852 0.605118
CH2 2.122154 3.525544 0.718831
CH2 2.103869 3.911440 0.713709
CH2 2.442732 4.058132 0.827422
CH2 2.424447 4.444028 0.822299
CH2 2.763309 4.590719 0.936012
CH2 2.745026 4.976616 0.930890
CH3 3.083887 5.123307 1.044603
S 0.393059 1.160420 -1.927780
CH2 0.442416 1.512156 -2.079840
CH2 0.501617 1.481009 -2.460368
CH2 0.550973 1.832745 -2.612428
CH2 0.610174 1.801598 -2.992956
CH2 0.659531 2.153334 -3.145015
CH2 0.718731 2.122187 -3.525544
CH2 0.768088 2.473923 -3.677603
CH2 0.827288 2.442777 -4.058132
CH2 0.876645 2.794513 -4.210191
CH2 0.935846 2.763366 -4.590719
CH2 0.985203 3.115102 -4.742779
CH3 1.044403 3.083955 -5.123307
S 1.160420 0.393059 -1.927780
CH2 1.286816 0.666412 -2.169811
CH2 1.480998 0.501650 -2.460368
CH2 1.607393 0.775003 -2.702399
CH2 1.801576 0.610241 -2.992956
CH2 1.927971 0.883593 -3.234987
CH2 2.122154 0.718831 -3.525544
CH2 2.248549 0.992184 -3.767575
CH2 2.442732 0.827422 -4.058132
CH2 2.569127 1.100774 -4.300163
CH2 2.763309 0.936012 -4.590719
CH2 2.889705 1.209365 -4.832751
CH3 3.083887 1.044603 -5.123307
S 0.393059 1.160420 1.927780
CH2 0.442416 1.512156 2.079840
CH2 0.501617 1.481009 2.460368
CH2 0.550973 1.832745 2.612428
CH2 0.610174 1.801598 2.992956
CH2 0.659531 2.153334 3.145015
CH2 0.718731 2.122187 3.525544
CH2 0.768088 2.473923 3.677603
CH2 0.827288 2.442777 4.058132
CH2 0.876645 2.794513 4.210191
CH2 0.935846 2.763366 4.590719
CH2 0.985203 3.115102 4.742779
CH3 1.044403 3.083955 5.123307
S 1.160420 0.393059 1.927780
CH2 1.286816 0.666412 2.169811
CH2 1.480998 0.501650 2.460368
CH2 1.607393 0.775003 2.702399
CH2 1.801576 0.610241 2.992956
CH2 1.927971 0.883593 3.234987
CH2 2.122154 0.718831 3.525544
CH2 2.248549 0.992184 3.767575
CH2 2.442732 0.827422 4.058132
CH2 2.569127 1.100774 4.300163
CH2 2.763309 0.936012 4.590719
CH2 2.889705 1.209365 4.832751
CH3 3.083887 1.044603 5.123307
S -2.252525 0.732106 0.000000
CH2 -2.621520 0.617565 0.000000
CH2 -2.852663 0.927160 0.000000
CH2 -3.221658 0.812619 0.000000
CH2 -3.452802 1.122214 0.000000
CH2 -3.821796 1.007673 0.000000
CH2 -4.052940 1.317268 0.000000
CH2 -4.421934 1.202727 0.000000
CH2 -4.653078 1.512322 0.000000
CH2 -5.022072 1.397782 0.000000
CH2 -5.253216 1.707377 0.000000
CH2 -5.622211 1.592836 0.000000
CH3 -5.853355 1.902431 0.000000
S -2.252525 -0.732106 0.000000
CH2 -2.483669 -1.041701 0.000000
CH2 -2.852663 -0.927160 0.000000
CH2 -3.083807 -1.236755 0.000000
CH2 -3.452802 -1.122214 0.000000
CH2 -3.683945 -1.431809 0.000000
CH2 -4.052940 -1.317268 0.000000
CH2 -4.284084 -1.626863 0.000000
CH2 -4.653078 -1.512322 0.000000
CH2 -4.884222 -1.821917 0.000000
CH2 -5.253216 -1.707377 0.000000
CH2 -5.484360 -2.016971 0.000000
CH3 -5.853355 -1.902431 0.000000
S -2.252525 0.000000 0.732106
CH2 -2.552594 -0.222988 0.829633
CH2 -2.852663 -0.000000 0.927160
CH2 -3.152733 -0.222988 1.024687
CH2 -3.452802 -0.000000 1.122214
CH2 -3.752871 -0.222988 1.219741
CH2 -4.052940 -0.000000 1.317268
CH2 -4.353009 -0.222988 1.414795
CH2 -4.653078 -0.000000 1.512322
CH2 -4.953147 -0.222988 1.609849
CH2 -5.253216 -0.000000 1.707377
CH2 -5.553285 -0.222988 1.804904
CH3 -5.853355 -0.000000 1.902431
S -2.252525 0.000000 -0.732106
CH2 -2.552594 -0.222988 -0.829633
CH2 -2.852663 0.000000 -0.927160
CH2 -3.152733 -0.222988 -1.024687
CH2 -3.452802 0.000000 -1.122214
CH2 -3.752871 -0.222988 -1.219741
CH2 -4.052940 0.000000 -1.317268
CH2 -4.353009 -0.222988 -1.414795
CH2 -4.653078 0.000000 -1.512322
CH2 -4.953147 -0.222988 -1.609849
CH2 -5.253216 0.000000 -1.707377
CH2 -5.553285 -0.222988 -1.804904
CH3 -5.853355 0.000000 -1.902431
S 0.732106 -2.252525 0.000000
CH2 1.041701 -2.483669 0.000000
CH2 0.927160 -2.852663 0.000000
CH2 1.236755 -3.083807 0.000000
CH2 1.122214 -3.452802 0.000000
CH2 1.431809 -3.683945 0.000000
CH2 1.317268 -4.052940 0.000000
CH2 1.626863 -4.284084 0.000000
CH2 1.512322 -4.653078 0.000000
CH2 1.821917 -4.884222 0.000000
CH2 1.707377 -5.253216 0.000000
CH2 2.016971 -5.484360 0.000000
CH3 1.902431 -5.853355 0.000000
S -0.732106 -2.252525 0.000000
CH2 -0.617565 -2.621520 0.000000
CH2 -0.927160 -2.852663 0.000000
CH2 -0.812619 -3.221658 0.000000
CH2 -1.122214 -3.452802 0.000000
CH2 -1.007673 -3.821796 0.000000
CH2 -1.317268 -4.052940 0.000000
CH2 -1.202727 -4.421934 0.000000
CH2 -1.512322 -4.653078 0.000000
CH2 -1.397782 -5.022072 0.000000
CH2 -1.707377 -5.253216 0.000000
CH2 -1.592836 -5.622211 0.000000
CH3 -1.902431 -5.853355 0.000000
S 0.000000 -2.252525 0.732106
CH2 0.000000 -2.621520 0.617565
CH2 -0.000000 -2.852663 0.927160
CH2 0.000000 -3.221658 0.812619
CH2 -0.000000 -3.452802 1.122214
CH2 0.000000 -3.821796 1.007673
CH2 -0.000000 -4.052940 1.317268
CH2 0.000000 -4.421934 1.202727
CH2 -0.000000 -4.653078 1.512322
CH2 0.000000 -5.022072 1.397782
CH2 -0.000000 -5.253216 1.707377
CH2 0.000000 -5.622211 1.592836
CH3 -0.000000 -5.853355 1.902431
S 0.000000 -2.252525 -0.732106
CH2 0.000000 -2.621520 -0.617565
CH2 -0.000000 -2.852663 -0.927160
CH2 0.000000 -3.221658 -0.812619
CH2 -0.000000 -3.452802 -1.122214
CH2 0.000000 -3.821796 -1.007673
CH2 -0.000000 -4.052940 -1.317268
CH2 0.000000 -4.421934 -1.202727
CH2 -0.000000 -4.653078 -1.512322
CH2 0.000000 -5.022072 -1.397782
CH2 -0.000000 -5.253216 -1.707377
CH2 0.000000 -5.622211 -1.592836
CH3 -0.000000 -5.853355 -1.902431
S 0.732106 0.000000 -2.252525
CH2 0.829633 0.222988 -2.552594
CH2 0.927160 0.000000 -2.852663
CH2 1.024687 0.222988 -3.152733
CH2 1.122214 0.000000 -3.452802
CH2 1.219741 0.222988 -3.752871
CH2 1.317268 0.000000 -4.052940
CH2 1.414795 0.222988 -4.353009
CH2 1.512322 0.000000 -4.653078
CH2 1.609849 0.222988 -4.953147
CH2 1.707377 0.000000 -5.253216
CH2 1.804904 0.222988 -5.553285
CH3 1.902431 0.000000 -5.853355
S -0.732106 0.000000 -2.252525
CH2 -0.829633 -0.222988 -2.552594
CH2 -0.927160 0.000000 -2.852663
CH2 -1.024687 -0.222988 -3.152733
CH2 -1.122214 0.000000 -3.452802
CH2 -1.219741 -0.222988 -3.752871
CH2 -1.317268 0.000000 -4.052940
CH2 -1.414795 -0.222988 -4.353009
CH2 -1.512322 0.000000 -4.653078
CH2 -1.609849 -0.222988 -4.953147
CH2 -1.707377 0.000000 -5.253216
CH2 -1.804904 -0.222988 -5.553285
CH3 -1.902431 0.000000 -5.853355
S 0.000000 0.732106 -2.252525
CH2 0.000000 1.041701 -2.483669
CH2 -0.000000 0.927160 -2.852663
CH2 0.000000 1.236755 -3.083807
CH2 -0.000000 1.122214 -3.452802
CH2 0.000000 1.431809 -3.683945
CH2 -0.000000 1.317268 -4.052940
CH2 0.000000 1.626863 -4.284084
CH2 -0.000000 1.512322 -4.653078
CH2 0.000000 1.821917 -4.884222
CH2 -0.000000 1.707377 -5.253216
CH2 0.000000 2.016971 -5.484360
CH3 -0.000000 1.902431 -5.853355
S 0.000000 -0.732106 -2.252525
CH2 0.000000 -1.041701 -2.483669
CH2 -0.000000 -0.927160 -2.852663
CH2 0.000000 -1.236755 -3.083807
CH2 -0.000000 -1.122214 -3.452802
CH2 0.000000 -1.431809 -3.683945
CH2 -0.000000 -1.317268 -4.052940
CH2 0.000000 -1.626863 -4.284084
CH2 -0.000000 -1.512322 -4.653078
CH2 0.000000 -1.821917 -4.884222
CH2 -0.000000 -1.707377 -5.253216
CH2 0.000000 -2.016971 -5.484360
CH3 -0.000000 -1.902431 -5.853355
S 0.732106 0.000000 2.252525
CH2 0.829633 0.222988 2.552594
CH2 0.927160 0.000000 2.852663
CH2 1.024687 0.222988 3.152733
CH2 1.122214 0.000000 3.452802
CH2 1.219741 0.222988 3.752871
CH2 1.317268 0.000000 4.052940
CH2 1.414795 0.222988 4.353009
CH2 1.512322 0.000000 4.653078
CH2 1.609849 0.222988 4.953147
CH2 1.707377 0.000000 5.253216
CH2 1.804904 0.222988 5.553285
CH3 1.902431 0.000000 5.853355
S -0.732106 0.000000 2.252525
CH2 -0.829633 -0.222988 2.552594
CH2 -0.927160 0.000000 2.852663
CH2 -1.024687 -0.222988 3.152733
CH2 -1.122214 0.000000 3.452802
CH2 -1.219741 -0.222988 3.752871
CH2 -1.317268 0.000000 4.052940
CH2 -1.414795 -0.222988 4.353009
CH2 -1.512322 0.000000 4.653078
CH2 -1.609849 -0.222988 4.953147
CH2 -1.707377 0.000000 5.253216
CH2 -1.804904 -0.222988 5.553285
CH3 -1.902431 0.000000 5.853355
S 0.000000 0.732106 2.252525
CH2 -0.000000 1.041701 2.483669
CH2 0.000000 0.927160 2.852663
CH2 -0.000000 1.236755 3.083807
CH2 0.000000 1.122214 3.452802
CH2 -0.000000 1.431809 3.683945
CH2 0.000000 1.317268 4.052940
CH2 -0.000000 1.626863 4.284084
CH2 0.000000 1.512322 4.653078
CH2 -0.000000 1.821917 4.884222
CH2 0.000000 1.707377 5.253216
CH2 -0.000000 2.016971 5.484360
CH3 0.000000 1.902431 5.853355
S 0.000000 -0.732106 2.252525
CH2 0.000000 -1.041701 2.483669
CH2 -0.000000 -0.927160 2.852663
CH2 0.000000 -1.236755 3.083807
CH2 -0.000000 -1.122214 3.452802
CH2 0.000000 -1.431809 3.683945
CH2 -0.000000 -1.317268 4.052940
CH2 0.000000 -1.626863 4.284084
CH2 -0.000000 -1.512322 4.653078
CH2 0.000000 -1.821917 4.884222
CH2 -0.000000 -1.707377 5.253216
CH2 0.000000 -2.016971 5.484360
CH3 -0.000000 -1.902431 5.853355
S 0.732106 2.252525 0.000000
CH2 0.617565 2.621520 0.000000
CH2 0.927160 2.852663 0.000000
CH2 0.812619 3.221658 0.000000
CH2 1.122214 3.452802 0.000000
CH2 1.007673 3.821796 0.000000
CH2 1.317268 4.052940 0.000000
CH2 1.202727 4.421934 0.000000
CH2 1.512322 4.653078 0.000000
CH2 1.397782 5.022072 0.000000
CH2 1.707377 5.253216 0.000000
CH2 1.592836 5.622211 0.000000
CH3 1.902431 5.853355 0.000000
S -0.732106 2.252525 0.000000
CH2 -1.041701 2.483669 0.000000
CH2 -0.927160 2.852663 0.000000
CH2 -1.236755 3.083807 0.000000
CH2 -1.122214 3.452802 0.000000
CH2 -1.431809 3.683945 0.000000
CH2 -1.317268 4.052940 0.000000
CH2 -1.626863 4.284084 0.000000
CH2 -1.512322 4.653078 0.000000
CH2 -1.821917 4.884222 0.000000
CH2 -1.707377 5.253216 0.000000
CH2 -2.016971 5.484360 0.000000
CH3 -1.902431 5.853355 0.000000
S 0.000000 2.252525 0.732106
CH2 -0.000000 2.621520 0.617565
CH2 0.000000 2.852663 0.927160
CH2 -0.000000 3.221658 0.812619
CH2 0.000000 3.452802 1.122214
CH2 -0.000000 3.821796 1.007673
CH2 0.000000 4.052940 1.317268
CH2 -0.000000 4.421934 1.202727
CH2 0.000000 4.653078 1.512322
CH2 -0.000000 5.022072 1.397782
CH2 0.000000 5.253216 1.707377
CH2 -0.000000 5.622211 1.592836
CH3 0.000000 5.853355 1.902431
S 0.000000 2.252525 -0.732106
CH2 0.000000 2.621520 -0.617565
CH2 -0.000000 2.852663 -0.927160
CH2 0.000000 3.221658 -0.812619
CH2 -0.000000 3.452802 -1.122214
CH2 0.000000 3.821796 -1.007673
CH2 -0.000000 4.052940 -1.317268
CH2 0.000000 4.421934 -1.202727
CH2 -0.000000 4.653078 -1.512322
CH2 0.000000 5.022072 -1.397782
CH2 -0.000000 5.253216 -1.707377
CH2 0.000000 5.622211 -1.592836
CH3 -0.000000 5.853355 -1.902431
S 2.252525 0.732106 0.000000
CH2 2.483669 1.041701 0.000000
CH2 2.852663 0.927160 0.000000
CH2 3.083807 1.236755 0.000000
CH2 3.452802 1.122214 0.000000
CH2 3.683945 1.431809 0.000000
CH2 4.052940 1.317268 0.000000
CH2 4.284084 1.626863 0.000000
CH2 4.653078 1.512322 0.000000
CH2 4.884222 1.821917 0.000000
CH2 5.253216 1.707377 0.000000
CH2 5.484360 2.016971 0.000000
CH3 5.853355 1.902431 0.000000
S 2.252525 -0.732106 0.000000
CH2 2.621520 -0.617565 0.000000
CH2 2.852663 -0.927160 0.000000
CH2 3.221658 -0.812619 0.000000
CH2 3.452802 -1.122214 0.000000
CH2 3.821796 -1.007673 0.000000
CH2 4.052940 -1.317268 0.000000
CH2 4.421934 -1.202727 0.000000
CH2 4.653078 -1.512322 0.000000
CH2 5.022072 -1.397782 0.000000
CH2 5.253216 -1.707377 0.000000
CH2 5.622211 -1.592836 0.000000
CH3 5.853355 -1.902431 0.000000
S 2.252525 0.000000 0.732106
CH2 2.552594 0.222988 0.829633
CH2 2.852663 0.000000 0.927160
CH2 3.152733 0.222988 1.024687
CH2 3.452802 0.000000 1.122214
CH2 3.752871 0.222988 1.219741
CH2 4.052940 0.000000 1.317268
CH2 4.353009 0.222988 1.414795
CH2 4.653078 0.000000 1.512322
CH2 4.953147 0.222988 1.609849
CH2 5.253216 0.000000 1.707377
CH2 5.553285 0.222988 1.804904
CH3 5.853355 0.000000 1.902431
S 2.252525 0.000000 -0.732106
CH2 2.552594 0.222988 -0.829633
CH2 2.852663 0.000000 -0.927160
CH2 3.152733 0.222988 -1.024687
CH2 3.452802 0.000000 -1.122214
CH2 3.752871 0.222988 -1.219741
CH2 4.052940 0.000000 -1.317268
CH2 4.353009 0.222988 -1.414795
CH2 4.653078 0.000000 -1.512322
CH2 4.953147 0.222988 -1.609849
CH2 5.253216 0.000000 -1.707377
CH2 5.553285 0.222988 -1.804904
CH3 5.853355 0.000000 -1.902431
