929

Au -1.500000 -1.500000 0.000000
Au -1.500000 -0.500000 -1.000000
Au -1.500000 -1.000000 -0.500000
Au -2.000000 -0.500000 -0.500000
Au -2.000000 -1.000000 0.000000
Au -1.500000 -0.500000 0.000000
Au -1.500000 -1.000000 0.500000
Au -2.000000 -0.500000 0.500000
Au -1.500000 -0.500000 1.000000
Au -1.500000 0.000000 -1.500000
Au -2.000000 0.000000 -1.000000
Au -1.500000 0.500000 -1.000000
Au -1.500000 0.000000 -0.500000
Au -2.000000 0.500000 -0.500000
Au -2.000000 0.000000 0.000000
Au -1.500000 0.500000 0.000000
Au -1.500000 0.000000 0.500000
Au -2.000000 0.500000 0.500000
Au -2.000000 0.000000 1.000000
Au -1.500000 0.500000 1.000000
Au -1.500000 0.000000 1.500000
Au -1.500000 1.000000 -0.500000
Au -2.000000 1.000000 0.000000
Au -1.500000 1.500000 0.000000
Au -1.500000 1.000000 0.500000
Au -0.500000 -1.500000 -1.000000
Au -0.500000 -2.000000 -0.500000
Au -1.000000 -1.500000 -0.500000
Au -1.000000 -2.000000 0.000000
Au -0.500000 -1.500000 0.000000
Au -0.500000 -2.000000 0.500000
Au -1.000000 -1.500000 0.500000
Au -0.500000 -1.500000 1.000000
Au -0.500000 -0.500000 -2.000000
Au -0.500000 -1.000000 -1.500000
Au -1.000000 -0.500000 -1.500000
Au -1.000000 -1.000000 -1.000000
Au -0.500000 -0.500000 -1.000000
Au -0.500000 -1.000000 -0.500000
Au -1.000000 -0.500000 -0.500000
Au -1.000000 -1.000000 0.000000
Au -0.500000 -0.500000 0.000000
Au -0.500000 -1.000000 0.500000
Au -1.000000 -0.500000 0.500000
Au -1.000000 -1.000000 1.000000
Au -0.500000 -0.500000 1.000000
Au -0.500000 -1.000000 1.500000
Au -1.000000 -0.500000 1.500000
Au -0.500000 -0.500000 2.000000
Au -1.000000 0.000000 -2.000000
Au -0.500000 0.500000 -2.000000
Au -0.500000 0.000000 -1.500000
Au -1.000000 0.500000 -1.500000
Au -1.000000 0.000000 -1.000000
Au -0.500000 0.500000 -1.000000
Au -0.500000 0.000000 -0.500000
Au -1.000000 0.500000 -0.500000
Au -1.000000 0.000000 0.000000
Au -0.500000 0.500000 0.000000
Au -0.500000 0.000000 0.500000
Au -1.000000 0.500000 0.500000
Au -1.000000 0.000000 1.000000
Au -0.500000 0.500000 1.000000
Au -0.500000 0.000000 1.500000
Au -1.000000 0.500000 1.500000
Au -1.000000 0.000000 2.000000
Au -0.500000 0.500000 2.000000
Au -0.500000 1.000000 -1.500000
Au -1.000000 1.000000 -1.000000
Au -0.500000 1.500000 -1.000000
Au -0.500000 1.000000 -0.500000
Au -1.000000 1.500000 -0.500000
Au -1.000000 1.000000 0.000000
Au -0.500000 1.500000 0.000000
Au -0.500000 1.000000 0.500000
Au -1.000000 1.500000 0.500000
Au -1.000000 1.000000 1.000000
Au -0.500000 1.500000 1.000000
Au -0.500000 1.000000 1.500000
Au -0.500000 2.000000 -0.500000
Au -1.000000 2.000000 0.000000
Au -0.500000 2.000000 0.500000
Au 0.000000 -1.500000 -1.500000
Au 0.000000 -2.000000 -1.000000
Au 0.500000 -1.500000 -1.000000
Au 0.500000 -2.000000 -0.500000
Au 0.000000 -1.500000 -0.500000
Au 0.000000 -2.000000 0.000000
Au 0.500000 -1.500000 0.000000
Au 0.500000 -2.000000 0.500000
Au 0.000000 -1.500000 0.500000
Au 0.000000 -2.000000 1.000000
Au 0.500000 -1.500000 1.000000
Au 0.000000 -1.500000 1.500000
Au 0.000000 -1.000000 -2.000000
Au 0.500000 -0.500000 -2.000000
Au 0.500000 -1.000000 -1.500000
Au 0.000000 -0.500000 -1.500000
Au 0.000000 -1.000000 -1.000000
Au 0.500000 -0.500000 -1.000000
Au 0.500000 -1.000000 -0.500000
Au 0.000000 -0.500000 -0.500000
Au 0.000000 -1.000000 0.000000
Au 0.500000 -0.500000 0.000000
Au 0.500000 -1.000000 0.500000
Au 0.000000 -0.500000 0.500000
Au 0.000000 -1.000000 1.000000
Au 0.500000 -0.500000 1.000000
Au 0.500000 -1.000000 1.500000
Au 0.000000 -0.500000 1.500000
Au 0.000000 -1.000000 2.000000
Au 0.500000 -0.500000 2.000000
Au 0.000000 0.000000 -2.000000
Au 0.500000 0.500000 -2.000000
Au 0.500000 0.000000 -1.500000
Au 0.000000 0.500000 -1.500000
Au 0.000000 0.000000 -1.000000
Au 0.500000 0.500000 -1.000000
Au 0.500000 0.000000 -0.500000
Au 0.000000 0.500000 -0.500000
V 0.000000 0.000000 0.000000
Au 0.500000 0.500000 0.000000
Au 0.500000 0.000000 0.500000
Au 0.000000 0.500000 0.500000
Au 0.000000 0.000000 1.000000
Au 0.500000 0.500000 1.000000
Au 0.500000 0.000000 1.500000
Au 0.000000 0.500000 1.500000
Au 0.000000 0.000000 2.000000
Au 0.500000 0.500000 2.000000
Au 0.000000 1.000000 -2.000000
Au 0.500000 1.000000 -1.500000
Au 0.000000 1.500000 -1.500000
Au 0.000000 1.000000 -1.000000
Au 0.500000 1.500000 -1.000000
Au 0.500000 1.000000 -0.500000
Au 0.000000 1.500000 -0.500000
Au 0.000000 1.000000 0.000000
Au 0.500000 1.500000 0.000000
Au 0.500000 1.000000 0.500000
Au 0.000000 1.500000 0.500000
Au 0.000000 1.000000 1.000000
Au 0.500000 1.500000 1.000000
Au 0.500000 1.000000 1.500000
Au 0.000000 1.500000 1.500000
Au 0.000000 1.000000 2.000000
Au 0.000000 2.000000 -1.000000
Au 0.500000 2.000000 -0.500000
Au 0.000000 2.000000 0.000000
Au 0.500000 2.000000 0.500000
Au 0.000000 2.000000 1.000000
Au 1.000000 -1.500000 -0.500000
Au 1.000000 -2.000000 0.000000
Au 1.500000 -1.500000 0.000000
Au 1.000000 -1.500000 0.500000
Au 1.000000 -0.500000 -1.500000
Au 1.000000 -1.000000 -1.000000
Au 1.500000 -0.500000 -1.000000
Au 1.500000 -1.000000 -0.500000
Au 1.000000 -0.500000 -0.500000
Au 1.000000 -1.000000 0.000000
Au 1.500000 -0.500000 0.000000
Au 1.500000 -1.000000 0.500000
Au 1.000000 -0.500000 0.500000
Au 1.000000 -1.000000 1.000000
Au 1.500000 -0.500000 1.000000
Au 1.000000 -0.500000 1.500000
Au 1.000000 0.000000 -2.000000
Au 1.500000 0.000000 -1.500000
Au 1.000000 0.500000 -1.500000
Au 1.000000 0.000000 -1.000000
Au 1.500000 0.500000 -1.000000
Au 1.500000 0.000000 -0.500000
Au 1.000000 0.500000 -0.500000
Au 1.000000 0.000000 0.000000
Au 1.500000 0.500000 0.000000
Au 1.500000 0.000000 0.500000
Au 1.000000 0.500000 0.500000
Au 1.000000 0.000000 1.000000
Au 1.500000 0.500000 1.000000
Au 1.500000 0.000000 1.500000
Au 1.000000 0.500000 1.500000
Au 1.000000 0.000000 2.000000
Au 1.000000 1.000000 -1.000000
Au 1.500000 1.000000 -0.500000
Au 1.000000 1.500000 -0.500000
Au 1.000000 1.000000 0.000000
Au 1.500000 1.500000 0.000000
Au 1.500000 1.000000 0.500000
Au 1.000000 1.500000 0.500000
Au 1.000000 1.000000 1.000000
Au 1.000000 2.000000 0.000000
Au 2.000000 -0.500000 -0.500000
Au 2.000000 -1.000000 0.000000
Au 2.000000 -0.500000 0.500000
Au 2.000000 0.000000 -1.000000
Au 2.000000 0.500000 -0.500000
Au 2.000000 0.000000 0.000000
Au 2.000000 0.500000 0.500000
Au 2.000000 0.000000 1.000000
Au 2.000000 1.000000 0.000000
S -2.301784 -0.767261 -1.534522
CH2 -3.318490 -2.105367 -2.212327
CH3 -2.301784 -0.767261 -1.534522
CH2 -1.083179 -1.209864 -0.722119
CH2 -0.329256 0.022967 -0.219504
CH2 0.889349 -0.419636 0.592899
CH2 1.643272 0.813195 1.095515
CH2 2.861877 0.370592 1.907918
CH2 3.615800 1.603422 2.410534
CH2 4.834405 1.160820 3.222937
CH2 5.588328 2.393650 3.725552
CH2 6.806933 1.951047 4.537956
CH2 7.560856 3.183878 5.040571
S -2.301784 -1.534522 -0.767261
CH2 -3.086149 -3.146990 -1.028716
CH3 -2.301784 -1.534522 -0.767261
CH2 -0.850838 -1.576173 -0.283613
CH2 -0.329256 -0.148371 -0.109752
CH2 1.121690 -0.190022 0.373897
CH2 1.643272 1.237780 0.547757
CH2 3.094218 1.196130 1.031406
CH2 3.615800 2.623932 1.205267
CH2 5.066746 2.582281 1.688915
CH2 5.588328 4.010083 1.862776
CH2 7.039274 3.968433 2.346425
CH2 7.560856 5.396235 2.520285
S -2.301784 -1.534522 0.767261
CH2 -3.086149 -3.146990 1.028716
CH3 -2.301784 -1.534522 0.767261
CH2 -0.850838 -1.576173 0.283613
CH2 -0.329256 -0.148371 0.109752
CH2 1.121690 -0.190022 -0.373897
CH2 1.643272 1.237780 -0.547757
CH2 3.094218 1.196130 -1.031406
CH2 3.615800 2.623932 -1.205267
CH2 5.066746 2.582281 -1.688915
CH2 5.588328 4.010083 -1.862776
CH2 7.039274 3.968433 -2.346425
CH2 7.560856 5.396235 -2.520285
S -2.301784 -0.767261 1.534522
CH2 -3.318490 -2.105367 2.212327
CH3 -2.301784 -0.767261 1.534522
CH2 -1.083179 -1.209864 0.722119
CH2 -0.329256 0.022967 0.219504
CH2 0.889349 -0.419636 -0.592899
CH2 1.643272 0.813195 -1.095515
CH2 2.861877 0.370592 -1.907918
CH2 3.615800 1.603422 -2.410534
CH2 4.834405 1.160820 -3.222937
CH2 5.588328 2.393650 -3.725552
CH2 6.806933 1.951047 -4.537956
CH2 7.560856 3.183878 -5.040571
S -2.301784 0.767261 -1.534522
CH2 -0.820396 1.104589 -0.546930
CH3 -2.301784 0.767261 -1.534522
CH2 -3.055707 2.000092 -2.037138
CH2 -4.274312 1.557489 -2.849541
CH2 -5.028235 2.790320 -3.352157
CH2 -6.246840 2.347717 -4.164560
CH2 -7.000763 3.580548 -4.667175
CH2 -8.219368 3.137945 -5.479579
CH2 -8.973291 4.370776 -5.982194
CH2 -10.191896 3.928173 -6.794597
CH2 -10.945819 5.161004 -7.297213
CH2 -12.164424 4.718401 -8.109616
S -2.301784 0.767261 1.534522
CH2 -0.820396 1.104589 0.546930
CH3 -2.301784 0.767261 1.534522
CH2 -3.055707 2.000092 2.037138
CH2 -4.274312 1.557489 2.849541
CH2 -5.028235 2.790320 3.352157
CH2 -6.246840 2.347717 4.164560
CH2 -7.000763 3.580548 4.667175
CH2 -8.219368 3.137945 5.479579
CH2 -8.973291 4.370776 5.982194
CH2 -10.191896 3.928173 6.794597
CH2 -10.945819 5.161004 7.297213
CH2 -12.164424 4.718401 8.109616
S -2.301784 1.534522 -0.767261
CH2 -0.588055 1.391508 -0.196018
CH3 -2.301784 1.534522 -0.767261
CH2 -2.823366 2.962324 -0.941122
CH2 -4.274312 2.920674 -1.424771
CH2 -4.795894 4.348476 -1.598631
CH2 -6.246840 4.306825 -2.082280
CH2 -6.768422 5.734627 -2.256141
CH2 -8.219368 5.692977 -2.739789
CH2 -8.740950 7.120779 -2.913650
CH2 -10.191896 7.079128 -3.397299
CH2 -10.713478 8.506930 -3.571159
CH2 -12.164424 8.465280 -4.054808
S -2.301784 1.534522 0.767261
CH2 -0.588055 1.391508 0.196018
CH3 -2.301784 1.534522 0.767261
CH2 -2.823366 2.962324 0.941122
CH2 -4.274312 2.920674 1.424771
CH2 -4.795894 4.348476 1.598631
CH2 -6.246840 4.306825 2.082280
CH2 -6.768422 5.734627 2.256141
CH2 -8.219368 5.692977 2.739789
CH2 -8.740950 7.120779 2.913650
CH2 -10.191896 7.079128 3.397299
CH2 -10.713478 8.506930 3.571159
CH2 -12.164424 8.465280 4.054808
S -0.767261 -2.301784 -1.534522
CH2 -0.616404 -4.082191 -1.232808
CH3 -0.767261 -2.301784 -1.534522
CH2 -0.215923 -1.395681 -0.431845
CH2 -0.413861 0.068900 -0.827721
CH2 0.137478 0.975003 0.274956
CH2 -0.060460 2.439584 -0.120920
CH2 0.490879 3.345687 0.981757
CH2 0.292941 4.810267 0.585881
CH2 0.844279 5.716370 1.688559
CH2 0.646341 7.180951 1.292683
CH2 1.197680 8.087054 2.395360
CH2 0.999742 9.551635 1.999484
S -1.534522 -2.301784 -0.767261
CH2 -1.662439 -4.108213 -0.831219
CH3 -1.534522 -2.301784 -0.767261
CH2 -0.257458 -1.751988 -0.128729
CH2 -0.294711 -0.222557 -0.147355
CH2 0.982354 0.327239 0.491177
CH2 0.945101 1.856671 0.472550
CH2 2.222165 2.406467 1.111083
CH2 2.184912 3.935898 1.092456
CH2 3.461977 4.485694 1.730988
CH2 3.424724 6.015125 1.712362
CH2 4.701788 6.564921 2.350894
CH2 4.664535 8.094352 2.332268
S -1.534522 -2.301784 0.767261
CH2 -1.662439 -4.108213 0.831219
CH3 -1.534522 -2.301784 0.767261
CH2 -0.257458 -1.751988 0.128729
CH2 -0.294711 -0.222557 0.147355
CH2 0.982354 0.327239 -0.491177
CH2 0.945101 1.856671 -0.472550
CH2 2.222165 2.406467 -1.111083
CH2 2.184912 3.935898 -1.092456
CH2 3.461977 4.485694 -1.730988
CH2 3.424724 6.015125 -1.712362
CH2 4.701788 6.564921 -2.350894
CH2 4.664535 8.094352 -2.332268
S -0.767261 -2.301784 1.534522
CH2 -0.616404 -4.082191 1.232808
CH3 -0.767261 -2.301784 1.534522
CH2 -0.215923 -1.395681 0.431845
CH2 -0.413861 0.068900 0.827721
CH2 0.137478 0.975003 -0.274956
CH2 -0.060460 2.439584 0.120920
CH2 0.490879 3.345687 -0.981757
CH2 0.292941 4.810267 -0.585881
CH2 0.844279 5.716370 -1.688559
CH2 0.646341 7.180951 -1.292683
CH2 1.197680 8.087054 -2.395360
CH2 0.999742 9.551635 -1.999484
S -0.767261 -1.534522 -2.301784
CH2 -0.741283 -3.344741 -2.223850
CH3 -0.767261 -1.534522 -2.301784
CH2 -0.340802 -0.811875 -1.022406
CH2 -0.413861 0.700580 -1.241582
CH2 0.012599 1.423227 0.037796
CH2 -0.060460 2.935682 -0.181380
CH2 0.365999 3.658329 1.097998
CH2 0.292941 5.170784 0.878822
CH2 0.719400 5.893431 2.158200
CH2 0.646341 7.405886 1.939024
CH2 1.072801 8.128533 3.218402
CH2 0.999742 9.640987 2.999226
S -1.534522 -0.767261 -2.301784
CH2 -2.100545 -2.264726 -3.150817
CH3 -1.534522 -0.767261 -2.301784
CH2 -0.695564 -0.998293 -1.043346
CH2 -0.294711 0.350290 -0.442066
CH2 0.544248 0.119258 0.816372
CH2 0.945101 1.467841 1.417651
CH2 1.784059 1.236809 2.676089
CH2 2.184912 2.585392 3.277368
CH2 3.023871 2.354360 4.535806
CH2 3.424724 3.702943 5.137085
CH2 4.263682 3.471911 6.395524
CH2 4.664535 4.820494 6.996803
S -1.577350 -1.577350 -1.577350
CH2 -1.927020 -3.320652 -1.927020
CH3 -1.577350 -1.577350 -1.577350
CH2 -0.511105 -1.318246 -0.511105
CH2 -0.327890 0.189653 -0.327890
CH2 0.738355 0.448757 0.738355
CH2 0.921570 1.956656 0.921570
CH2 1.987815 2.215761 1.987815
CH2 2.171030 3.723660 2.171030
CH2 3.237275 3.982764 3.237275
CH2 3.420490 5.490663 3.420490
CH2 4.486735 5.749767 4.486735
CH2 4.669950 7.257666 4.669950
S -1.577350 -1.577350 1.577350
CH2 -1.927020 -3.320652 1.927020
CH3 -1.577350 -1.577350 1.577350
CH2 -0.511105 -1.318246 0.511105
CH2 -0.327890 0.189653 0.327890
CH2 0.738355 0.448757 -0.738355
CH2 0.921570 1.956656 -0.921570
CH2 1.987815 2.215761 -1.987815
CH2 2.171030 3.723660 -2.171030
CH2 3.237275 3.982764 -3.237275
CH2 3.420490 5.490663 -3.420490
CH2 4.486735 5.749767 -4.486735
CH2 4.669950 7.257666 -4.669950
S -0.767261 -1.534522 2.301784
CH2 -0.741283 -3.344741 2.223850
CH3 -0.767261 -1.534522 2.301784
CH2 -0.340802 -0.811875 1.022406
CH2 -0.413861 0.700580 1.241582
CH2 0.012599 1.423227 -0.037796
CH2 -0.060460 2.935682 0.181380
CH2 0.365999 3.658329 -1.097998
CH2 0.292941 5.170784 -0.878822
CH2 0.719400 5.893431 -2.158200
CH2 0.646341 7.405886 -1.939024
CH2 1.072801 8.128533 -3.218402
CH2 0.999742 9.640987 -2.999226
S -1.534522 -0.767261 2.301784
CH2 -2.100545 -2.264726 3.150817
CH3 -1.534522 -0.767261 2.301784
CH2 -0.695564 -0.998293 1.043346
CH2 -0.294711 0.350290 0.442066
CH2 0.544248 0.119258 -0.816372
CH2 0.945101 1.467841 -1.417651
CH2 1.784059 1.236809 -2.676089
CH2 2.184912 2.585392 -3.277368
CH2 3.023871 2.354360 -4.535806
CH2 3.424724 3.702943 -5.137085
CH2 4.263682 3.471911 -6.395524
CH2 4.664535 4.820494 -6.996803
S -1.534522 0.767261 -2.301784
CH2 -0.530394 0.849411 -0.795591
CH3 -1.534522 0.767261 -2.301784
CH2 -1.935375 2.115844 -2.903063
CH2 -2.774334 1.884812 -4.161501
CH2 -3.175187 3.233395 -4.762780
CH2 -4.014146 3.002363 -6.021218
CH2 -4.414998 4.350946 -6.622497
CH2 -5.253957 4.119914 -7.880936
CH2 -5.654810 5.468497 -8.482215
CH2 -6.493769 5.237465 -9.740653
CH2 -6.894621 6.586048 -10.341932
CH2 -7.733580 6.355016 -11.600370
S -1.534522 0.767261 2.301784
CH2 -0.530394 0.849411 0.795591
CH3 -1.534522 0.767261 2.301784
CH2 -1.935375 2.115844 2.903063
CH2 -2.774334 1.884812 4.161501
CH2 -3.175187 3.233395 4.762780
CH2 -4.014146 3.002363 6.021218
CH2 -4.414998 4.350946 6.622497
CH2 -5.253957 4.119914 7.880936
CH2 -5.654810 5.468497 8.482215
CH2 -6.493769 5.237465 9.740653
CH2 -6.894621 6.586048 10.341932
CH2 -7.733580 6.355016 11.600370
S -0.767261 1.534522 -2.301784
CH2 -0.293721 0.514111 -0.881164
CH3 -0.767261 1.534522 -2.301784
CH2 -0.694203 3.046977 -2.082608
CH2 -1.120662 3.769624 -3.361986
CH2 -1.047603 5.282079 -3.142810
CH2 -1.474063 6.004726 -4.422188
CH2 -1.401004 7.517181 -4.203012
CH2 -1.827463 8.239828 -5.482390
CH2 -1.754405 9.752283 -5.263214
CH2 -2.180864 10.474930 -6.542592
CH2 -2.107805 11.987385 -6.323416
CH2 -2.534265 12.710032 -7.602794
S -1.577350 1.577350 -1.577350
CH2 -0.344650 1.082843 -0.344650
CH3 -1.577350 1.577350 -1.577350
CH2 -1.760565 3.085249 -1.760565
CH2 -2.826810 3.344354 -2.826810
CH2 -3.010025 4.852252 -3.010025
CH2 -4.076270 5.111357 -4.076270
CH2 -4.259485 6.619256 -4.259485
CH2 -5.325730 6.878360 -5.325730
CH2 -5.508945 8.386259 -5.508945
CH2 -6.575190 8.645363 -6.575190
CH2 -6.758405 10.153262 -6.758405
CH2 -7.824650 10.412367 -7.824650
S -0.767261 2.301784 -1.534522
CH2 -0.168842 1.079855 -0.337684
CH3 -0.767261 2.301784 -1.534522
CH2 -0.569323 3.766364 -1.138646
CH2 -1.120662 4.672467 -2.241324
CH2 -0.922724 6.137048 -1.845448
CH2 -1.474063 7.043151 -2.948125
CH2 -1.276125 8.507732 -2.552249
CH2 -1.827463 9.413835 -3.654926
CH2 -1.629525 10.878415 -3.259050
CH2 -2.180864 11.784518 -4.361728
CH2 -1.982926 13.249099 -3.965852
CH2 -2.534265 14.155202 -5.068529
S -1.534522 2.301784 -0.767261
CH2 -0.092288 1.474990 -0.046144
CH3 -1.534522 2.301784 -0.767261
CH2 -1.497269 3.831215 -0.748635
CH2 -2.774334 4.381011 -1.387167
CH2 -2.737081 5.910442 -1.368540
CH2 -4.014146 6.460238 -2.007073
CH2 -3.976892 7.989669 -1.988446
CH2 -5.253957 8.539465 -2.626979
CH2 -5.216704 10.068896 -2.608352
CH2 -6.493769 10.618692 -3.246884
CH2 -6.456515 12.148123 -3.228258
CH2 -7.733580 12.697919 -3.866790
S -1.534522 2.301784 0.767261
CH2 -0.092288 1.474990 0.046144
CH3 -1.534522 2.301784 0.767261
CH2 -1.497269 3.831215 0.748635
CH2 -2.774334 4.381011 1.387167
CH2 -2.737081 5.910442 1.368540
CH2 -4.014146 6.460238 2.007073
CH2 -3.976892 7.989669 1.988446
CH2 -5.253957 8.539465 2.626979
CH2 -5.216704 10.068896 2.608352
CH2 -6.493769 10.618692 3.246884
CH2 -6.456515 12.148123 3.228258
CH2 -7.733580 12.697919 3.866790
S -1.577350 1.577350 1.577350
CH2 -0.344650 1.082843 0.344650
CH3 -1.577350 1.577350 1.577350
CH2 -1.760565 3.085249 1.760565
CH2 -2.826810 3.344354 2.826810
CH2 -3.010025 4.852252 3.010025
CH2 -4.076270 5.111357 4.076270
CH2 -4.259485 6.619256 4.259485
CH2 -5.325730 6.878360 5.325730
CH2 -5.508945 8.386259 5.508945
CH2 -6.575190 8.645363 6.575190
CH2 -6.758405 10.153262 6.758405
CH2 -7.824650 10.412367 7.824650
S -0.767261 2.301784 1.534522
CH2 -0.168842 1.079855 0.337684
CH3 -0.767261 2.301784 1.534522
CH2 -0.569323 3.766364 1.138646
CH2 -1.120662 4.672467 2.241324
CH2 -0.922724 6.137048 1.845448
CH2 -1.474063 7.043151 2.948125
CH2 -1.276125 8.507732 2.552249
CH2 -1.827463 9.413835 3.654926
CH2 -1.629525 10.878415 3.259050
CH2 -2.180864 11.784518 4.361728
CH2 -1.982926 13.249099 3.965852
CH2 -2.534265 14.155202 5.068529
S -0.767261 1.534522 2.301784
CH2 -0.293721 0.514111 0.881164
CH3 -0.767261 1.534522 2.301784
CH2 -0.694203 3.046977 2.082608
CH2 -1.120662 3.769624 3.361986
CH2 -1.047603 5.282079 3.142810
CH2 -1.474063 6.004726 4.422188
CH2 -1.401004 7.517181 4.203012
CH2 -1.827463 8.239828 5.482390
CH2 -1.754405 9.752283 5.263214
CH2 -2.180864 10.474930 6.542592
CH2 -2.107805 11.987385 6.323416
CH2 -2.534265 12.710032 7.602794
S 0.767261 -2.301784 -1.534522
CH2 1.365680 -3.523713 -2.731361
CH3 0.767261 -2.301784 -1.534522
CH2 0.965199 -0.837203 -1.930398
CH2 0.413861 0.068900 -0.827721
CH2 0.611799 1.533481 -1.223597
CH2 0.060460 2.439584 -0.120920
CH2 0.258398 3.904164 -0.516796
CH2 -0.292941 4.810267 0.585881
CH2 -0.095003 6.274848 0.190005
CH2 -0.646341 7.180951 1.292683
CH2 -0.448403 8.645532 0.896807
CH2 -0.999742 9.551635 1.999484
S 0.767261 -2.301784 1.534522
CH2 1.365680 -3.523713 2.731361
CH3 0.767261 -2.301784 1.534522
CH2 0.965199 -0.837203 1.930398
CH2 0.413861 0.068900 0.827721
CH2 0.611799 1.533481 1.223597
CH2 0.060460 2.439584 0.120920
CH2 0.258398 3.904164 0.516796
CH2 -0.292941 4.810267 -0.585881
CH2 -0.095003 6.274848 -0.190005
CH2 -0.646341 7.180951 -1.292683
CH2 -0.448403 8.645532 -0.896807
CH2 -0.999742 9.551635 -1.999484
S 0.767261 -1.534522 -2.301784
CH2 1.240801 -2.554934 -3.722403
CH3 0.767261 -1.534522 -2.301784
CH2 0.840320 -0.022068 -2.520959
CH2 0.413861 0.700580 -1.241582
CH2 0.486919 2.213034 -1.460757
CH2 0.060460 2.935682 -0.181380
CH2 0.133518 4.448136 -0.400555
CH2 -0.292941 5.170784 0.878822
CH2 -0.219882 6.683238 0.659647
CH2 -0.646341 7.405886 1.939024
CH2 -0.573283 8.918340 1.719848
CH2 -0.999742 9.640987 2.999226
S 0.767261 -1.534522 2.301784
CH2 1.240801 -2.554934 3.722403
CH3 0.767261 -1.534522 2.301784
CH2 0.840320 -0.022068 2.520959
CH2 0.413861 0.700580 1.241582
CH2 0.486919 2.213034 1.460757
CH2 0.060460 2.935682 0.181380
CH2 0.133518 4.448136 0.400555
CH2 -0.292941 5.170784 -0.878822
CH2 -0.219882 6.683238 -0.659647
CH2 -0.646341 7.405886 -1.939024
CH2 -0.573283 8.918340 -1.719848
CH2 -0.999742 9.640987 -2.999226
S 0.767261 1.534522 -2.301784
CH2 0.793239 -0.275696 -2.379718
CH3 0.767261 1.534522 -2.301784
CH2 1.193720 2.257170 -3.581161
CH2 1.120662 3.769624 -3.361986
CH2 1.547121 4.492272 -4.641363
CH2 1.474063 6.004726 -4.422188
CH2 1.900522 6.727374 -5.701565
CH2 1.827463 8.239828 -5.482390
CH2 2.253922 8.962476 -6.761767
CH2 2.180864 10.474930 -6.542592
CH2 2.607323 11.197578 -7.821969
CH2 2.534265 12.710032 -7.602794
S 0.767261 2.301784 -1.534522
CH2 0.918119 0.521377 -1.836237
CH3 0.767261 2.301784 -1.534522
CH2 1.318600 3.207887 -2.637200
CH2 1.120662 4.672467 -2.241324
CH2 1.672001 5.578570 -3.344001
CH2 1.474063 7.043151 -2.948125
CH2 2.025401 7.949254 -4.050802
CH2 1.827463 9.413835 -3.654926
CH2 2.378802 10.319938 -4.757604
CH2 2.180864 11.784518 -4.361728
CH2 2.732203 12.690621 -5.464405
CH2 2.534265 14.155202 -5.068529
S 0.767261 2.301784 1.534522
CH2 0.918119 0.521377 1.836237
CH3 0.767261 2.301784 1.534522
CH2 1.318600 3.207887 2.637200
CH2 1.120662 4.672467 2.241324
CH2 1.672001 5.578570 3.344001
CH2 1.474063 7.043151 2.948125
CH2 2.025401 7.949254 4.050802
CH2 1.827463 9.413835 3.654926
CH2 2.378802 10.319938 4.757604
CH2 2.180864 11.784518 4.361728
CH2 2.732203 12.690621 5.464405
CH2 2.534265 14.155202 5.068529
S 0.767261 1.534522 2.301784
CH2 0.793239 -0.275696 2.379718
CH3 0.767261 1.534522 2.301784
CH2 1.193720 2.257170 3.581161
CH2 1.120662 3.769624 3.361986
CH2 1.547121 4.492272 4.641363
CH2 1.474063 6.004726 4.422188
CH2 1.900522 6.727374 5.701565
CH2 1.827463 8.239828 5.482390
CH2 2.253922 8.962476 6.761767
CH2 2.180864 10.474930 6.542592
CH2 2.607323 11.197578 7.821969
CH2 2.534265 12.710032 7.602794
S 1.534522 -2.301784 -0.767261
CH2 2.976757 -3.128578 -1.488378
CH3 1.534522 -2.301784 -0.767261
CH2 1.571776 -0.772353 -0.785888
CH2 0.294711 -0.222557 -0.147355
CH2 0.331964 1.306874 -0.165982
CH2 -0.945101 1.856671 0.472550
CH2 -0.907847 3.386102 0.453924
CH2 -2.184912 3.935898 1.092456
CH2 -2.147659 5.465329 1.073829
CH2 -3.424724 6.015125 1.712362
CH2 -3.387470 7.544556 1.693735
CH2 -4.664535 8.094352 2.332268
S 1.534522 -2.301784 0.767261
CH2 2.976757 -3.128578 1.488378
CH3 1.534522 -2.301784 0.767261
CH2 1.571776 -0.772353 0.785888
CH2 0.294711 -0.222557 0.147355
CH2 0.331964 1.306874 0.165982
CH2 -0.945101 1.856671 -0.472550
CH2 -0.907847 3.386102 -0.453924
CH2 -2.184912 3.935898 -1.092456
CH2 -2.147659 5.465329 -1.073829
CH2 -3.424724 6.015125 -1.712362
CH2 -3.387470 7.544556 -1.693735
CH2 -4.664535 8.094352 -2.332268
S 1.534522 -0.767261 -2.301784
CH2 2.538651 -0.685112 -3.807976
CH3 1.534522 -0.767261 -2.301784
CH2 1.133670 0.581321 -1.700505
CH2 0.294711 0.350290 -0.442066
CH2 -0.106142 1.698872 0.159213
CH2 -0.945101 1.467841 1.417651
CH2 -1.345953 2.816423 2.018930
CH2 -2.184912 2.585392 3.277368
CH2 -2.585765 3.933974 3.878647
CH2 -3.424724 3.702943 5.137085
CH2 -3.825576 5.051525 5.738364
CH2 -4.664535 4.820494 6.996803
S 1.577350 -1.577350 -1.577350
CH2 2.810051 -2.071858 -2.810051
CH3 1.577350 -1.577350 -1.577350
CH2 1.394136 -0.069451 -1.394136
CH2 0.327890 0.189653 -0.327890
CH2 0.144676 1.697552 -0.144676
CH2 -0.921570 1.956656 0.921570
CH2 -1.104784 3.464555 1.104784
CH2 -2.171030 3.723660 2.171030
CH2 -2.354244 5.231558 2.354244
CH2 -3.420490 5.490663 3.420490
CH2 -3.603704 6.998562 3.603704
CH2 -4.669950 7.257666 4.669950
S 2.301784 -0.767261 -1.534522
CH2 3.783172 -0.429934 -2.522115
CH3 2.301784 -0.767261 -1.534522
CH2 1.547861 0.465569 -1.031907
CH2 0.329256 0.022967 -0.219504
CH2 -0.424668 1.255797 0.283112
CH2 -1.643272 0.813195 1.095515
CH2 -2.397196 2.046025 1.598130
CH2 -3.615800 1.603422 2.410534
CH2 -4.369724 2.836253 2.913149
CH2 -5.588328 2.393650 3.725552
CH2 -6.342252 3.626481 4.228168
CH2 -7.560856 3.183878 5.040571
S 2.301784 -1.534522 -0.767261
CH2 4.015513 -1.677537 -1.338504
CH3 2.301784 -1.534522 -0.767261
CH2 1.780201 -0.106721 -0.593400
CH2 0.329256 -0.148371 -0.109752
CH2 -0.192327 1.279431 0.064109
CH2 -1.643272 1.237780 0.547757
CH2 -2.164855 2.665582 0.721618
CH2 -3.615800 2.623932 1.205267
CH2 -4.137383 4.051734 1.379128
CH2 -5.588328 4.010083 1.862776
CH2 -6.109911 5.437885 2.036637
CH2 -7.560856 5.396235 2.520285
S 2.301784 -1.534522 0.767261
CH2 4.015513 -1.677537 1.338504
CH3 2.301784 -1.534522 0.767261
CH2 1.780201 -0.106721 0.593400
CH2 0.329256 -0.148371 0.109752
CH2 -0.192327 1.279431 -0.064109
CH2 -1.643272 1.237780 -0.547757
CH2 -2.164855 2.665582 -0.721618
CH2 -3.615800 2.623932 -1.205267
CH2 -4.137383 4.051734 -1.379128
CH2 -5.588328 4.010083 -1.862776
CH2 -6.109911 5.437885 -2.036637
CH2 -7.560856 5.396235 -2.520285
S 1.577350 -1.577350 1.577350
CH2 2.810051 -2.071858 2.810051
CH3 1.577350 -1.577350 1.577350
CH2 1.394136 -0.069451 1.394136
CH2 0.327890 0.189653 0.327890
CH2 0.144676 1.697552 0.144676
CH2 -0.921570 1.956656 -0.921570
CH2 -1.104784 3.464555 -1.104784
CH2 -2.171030 3.723660 -2.171030
CH2 -2.354244 5.231558 -2.354244
CH2 -3.420490 5.490663 -3.420490
CH2 -3.603704 6.998562 -3.603704
CH2 -4.669950 7.257666 -4.669950
S 2.301784 -0.767261 1.534522
CH2 3.783172 -0.429934 2.522115
CH3 2.301784 -0.767261 1.534522
CH2 1.547861 0.465569 1.031907
CH2 0.329256 0.022967 0.219504
CH2 -0.424668 1.255797 -0.283112
CH2 -1.643272 0.813195 -1.095515
CH2 -2.397196 2.046025 -1.598130
CH2 -3.615800 1.603422 -2.410534
CH2 -4.369724 2.836253 -2.913149
CH2 -5.588328 2.393650 -3.725552
CH2 -6.342252 3.626481 -4.228168
CH2 -7.560856 3.183878 -5.040571
S 1.534522 -0.767261 2.301784
CH2 2.538651 -0.685112 3.807976
CH3 1.534522 -0.767261 2.301784
CH2 1.133670 0.581321 1.700505
CH2 0.294711 0.350290 0.442066
CH2 -0.106142 1.698872 -0.159213
CH2 -0.945101 1.467841 -1.417651
CH2 -1.345953 2.816423 -2.018930
CH2 -2.184912 2.585392 -3.277368
CH2 -2.585765 3.933974 -3.878647
CH2 -3.424724 3.702943 -5.137085
CH2 -3.825576 5.051525 -5.738364
CH2 -4.664535 4.820494 -6.996803
S 1.534522 0.767261 -2.301784
CH2 0.968500 -0.730203 -1.452750
CH3 1.534522 0.767261 -2.301784
CH2 2.373481 0.536230 -3.560222
CH2 2.774334 1.884812 -4.161501
CH2 3.613293 1.653781 -5.419939
CH2 4.014146 3.002363 -6.021218
CH2 4.853104 2.771332 -7.279656
CH2 5.253957 4.119914 -7.880936
CH2 6.092916 3.888883 -9.139374
CH2 6.493769 5.237465 -9.740653
CH2 7.332727 5.006434 -10.999091
CH2 7.733580 6.355016 -11.600370
S 2.301784 0.767261 -1.534522
CH2 1.285077 -0.570845 -0.856718
CH3 2.301784 0.767261 -1.534522
CH2 3.520389 0.324658 -2.346926
CH2 4.274312 1.557489 -2.849541
CH2 5.492917 1.114886 -3.661944
CH2 6.246840 2.347717 -4.164560
CH2 7.465445 1.905114 -4.976963
CH2 8.219368 3.137945 -5.479579
CH2 9.437973 2.695342 -6.291982
CH2 10.191896 3.928173 -6.794597
CH2 11.410501 3.485570 -7.607000
CH2 12.164424 4.718401 -8.109616
S 2.301784 0.767261 1.534522
CH2 1.285077 -0.570845 0.856718
CH3 2.301784 0.767261 1.534522
CH2 3.520389 0.324658 2.346926
CH2 4.274312 1.557489 2.849541
CH2 5.492917 1.114886 3.661944
CH2 6.246840 2.347717 4.164560
CH2 7.465445 1.905114 4.976963
CH2 8.219368 3.137945 5.479579
CH2 9.437973 2.695342 6.291982
CH2 10.191896 3.928173 6.794597
CH2 11.410501 3.485570 7.607000
CH2 12.164424 4.718401 8.109616
S 1.534522 0.767261 2.301784
CH2 0.968500 -0.730203 1.452750
CH3 1.534522 0.767261 2.301784
CH2 2.373481 0.536230 3.560222
CH2 2.774334 1.884812 4.161501
CH2 3.613293 1.653781 5.419939
CH2 4.014146 3.002363 6.021218
CH2 4.853104 2.771332 7.279656
CH2 5.253957 4.119914 7.880936
CH2 6.092916 3.888883 9.139374
CH2 6.493769 5.237465 9.740653
CH2 7.332727 5.006434 10.999091
CH2 7.733580 6.355016 11.600370
S 1.577350 1.577350 -1.577350
CH2 1.227681 -0.165951 -1.227681
CH3 1.577350 1.577350 -1.577350
CH2 2.643596 1.836455 -2.643596
CH2 2.826810 3.344354 -2.826810
CH2 3.893056 3.603458 -3.893056
CH2 4.076270 5.111357 -4.076270
CH2 5.142516 5.370461 -5.142516
CH2 5.325730 6.878360 -5.325730
CH2 6.391976 7.137465 -6.391976
CH2 6.575190 8.645363 -6.575190
CH2 7.641436 8.904468 -7.641436
CH2 7.824650 10.412367 -7.824650
S 2.301784 1.534522 -0.767261
CH2 1.517418 -0.077945 -0.505806
CH3 2.301784 1.534522 -0.767261
CH2 3.752729 1.492872 -1.250910
CH2 4.274312 2.920674 -1.424771
CH2 5.725257 2.879023 -1.908419
CH2 6.246840 4.306825 -2.082280
CH2 7.697785 4.265175 -2.565928
CH2 8.219368 5.692977 -2.739789
CH2 9.670314 5.651326 -3.223438
CH2 10.191896 7.079128 -3.397299
CH2 11.642842 7.037478 -3.880947
CH2 12.164424 8.465280 -4.054808
S 1.534522 2.301784 -0.767261
CH2 1.406606 0.495355 -0.703303
CH3 1.534522 2.301784 -0.767261
CH2 2.811587 2.851580 -1.405794
CH2 2.774334 4.381011 -1.387167
CH2 4.051399 4.930807 -2.025699
CH2 4.014146 6.460238 -2.007073
CH2 5.291210 7.010034 -2.645605
CH2 5.253957 8.539465 -2.626979
CH2 6.531022 9.089261 -3.265511
CH2 6.493769 10.618692 -3.246884
CH2 7.770833 11.168488 -3.885417
CH2 7.733580 12.697919 -3.866790
S 2.301784 1.534522 0.767261
CH2 1.517418 -0.077945 0.505806
CH3 2.301784 1.534522 0.767261
CH2 3.752729 1.492872 1.250910
CH2 4.274312 2.920674 1.424771
CH2 5.725257 2.879023 1.908419
CH2 6.246840 4.306825 2.082280
CH2 7.697785 4.265175 2.565928
CH2 8.219368 5.692977 2.739789
CH2 9.670314 5.651326 3.223438
CH2 10.191896 7.079128 3.397299
CH2 11.642842 7.037478 3.880947
CH2 12.164424 8.465280 4.054808
S 1.534522 2.301784 0.767261
CH2 1.406606 0.495355 0.703303
CH3 1.534522 2.301784 0.767261
CH2 2.811587 2.851580 1.405794
CH2 2.774334 4.381011 1.387167
CH2 4.051399 4.930807 2.025699
CH2 4.014146 6.460238 2.007073
CH2 5.291210 7.010034 2.645605
CH2 5.253957 8.539465 2.626979
CH2 6.531022 9.089261 3.265511
CH2 6.493769 10.618692 3.246884
CH2 7.770833 11.168488 3.885417
CH2 7.733580 12.697919 3.866790
S 1.577350 1.577350 1.577350
CH2 1.227681 -0.165951 1.227681
CH3 1.577350 1.577350 1.577350
CH2 2.643596 1.836455 2.643596
CH2 2.826810 3.344354 2.826810
CH2 3.893056 3.603458 3.893056
CH2 4.076270 5.111357 4.076270
CH2 5.142516 5.370461 5.142516
CH2 5.325730 6.878360 5.325730
CH2 6.391976 7.137465 6.391976
CH2 6.575190 8.645363 6.575190
CH2 7.641436 8.904468 7.641436
CH2 7.824650 10.412367 7.824650
