1163 
 
Au -1.500000 -1.500000 0.000000
Au -1.500000 -0.500000 -1.000000
Au -1.500000 -1.000000 -0.500000
Au -2.000000 -0.500000 -0.500000
Au -2.000000 -1.000000 0.000000
Au -1.500000 -1.000000 0.500000
Au -2.000000 -0.500000 0.500000
Au -1.500000 -0.500000 1.000000
Au -1.500000 0.000000 -1.500000
Au -2.000000 0.000000 -1.000000
Au -1.500000 0.500000 -1.000000
Au -2.000000 0.500000 -0.500000
Au -2.000000 0.000000 0.000000
Au -2.000000 0.500000 0.500000
Au -2.000000 0.000000 1.000000
Au -1.500000 0.500000 1.000000
Au -1.500000 0.000000 1.500000
Au -1.500000 1.000000 -0.500000
Au -2.000000 1.000000 0.000000
Au -1.500000 1.500000 0.000000
Au -1.500000 1.000000 0.500000
Au -0.500000 -1.500000 -1.000000
Au -0.500000 -2.000000 -0.500000
Au -1.000000 -1.500000 -0.500000
Au -1.000000 -2.000000 0.000000
Au -0.500000 -2.000000 0.500000
Au -1.000000 -1.500000 0.500000
Au -0.500000 -1.500000 1.000000
Au -0.500000 -0.500000 -2.000000
Au -0.500000 -1.000000 -1.500000
Au -1.000000 -0.500000 -1.500000
Au -1.000000 -1.000000 -1.000000
Au -1.000000 -1.000000 1.000000
Au -0.500000 -1.000000 1.500000
Au -1.000000 -0.500000 1.500000
Au -0.500000 -0.500000 2.000000
Au -1.000000 0.000000 -2.000000
Au -0.500000 0.500000 -2.000000
Au -1.000000 0.500000 -1.500000
Au -1.000000 0.500000 1.500000
Au -1.000000 0.000000 2.000000
Au -0.500000 0.500000 2.000000
Au -0.500000 1.000000 -1.500000
Au -1.000000 1.000000 -1.000000
Au -0.500000 1.500000 -1.000000
Au -1.000000 1.500000 -0.500000
Au -1.000000 1.500000 0.500000
Au -1.000000 1.000000 1.000000
Au -0.500000 1.500000 1.000000
Au -0.500000 1.000000 1.500000
Au -0.500000 2.000000 -0.500000
Au -1.000000 2.000000 0.000000
Au -0.500000 2.000000 0.500000
Au 0.000000 -1.500000 -1.500000
Au 0.000000 -2.000000 -1.000000
Au 0.500000 -1.500000 -1.000000
Au 0.500000 -2.000000 -0.500000
Au 0.000000 -2.000000 0.000000
Au 0.500000 -2.000000 0.500000
Au 0.000000 -2.000000 1.000000
Au 0.500000 -1.500000 1.000000
Au 0.000000 -1.500000 1.500000
Au 0.000000 -1.000000 -2.000000
Au 0.500000 -0.500000 -2.000000
Au 0.500000 -1.000000 -1.500000
Au 0.500000 -1.000000 1.500000
Au 0.000000 -1.000000 2.000000
Au 0.500000 -0.500000 2.000000
Au 0.000000 0.000000 -2.000000
Au 0.500000 0.500000 -2.000000
Au 0.000000 0.000000 2.000000
Au 0.500000 0.500000 2.000000
Au 0.000000 1.000000 -2.000000
Au 0.500000 1.000000 -1.500000
Au 0.000000 1.500000 -1.500000
Au 0.500000 1.500000 -1.000000
Au 0.500000 1.500000 1.000000
Au 0.500000 1.000000 1.500000
Au 0.000000 1.500000 1.500000
Au 0.000000 1.000000 2.000000
Au 0.000000 2.000000 -1.000000
Au 0.500000 2.000000 -0.500000
Au 0.000000 2.000000 0.000000
Au 0.500000 2.000000 0.500000
Au 0.000000 2.000000 1.000000
Au 1.000000 -1.500000 -0.500000
Au 1.000000 -2.000000 0.000000
Au 1.500000 -1.500000 0.000000
Au 1.000000 -1.500000 0.500000
Au 1.000000 -0.500000 -1.500000
Au 1.000000 -1.000000 -1.000000
Au 1.500000 -0.500000 -1.000000
Au 1.500000 -1.000000 -0.500000
Au 1.500000 -1.000000 0.500000
Au 1.000000 -1.000000 1.000000
Au 1.500000 -0.500000 1.000000
Au 1.000000 -0.500000 1.500000
Au 1.000000 0.000000 -2.000000
Au 1.500000 0.000000 -1.500000
Au 1.000000 0.500000 -1.500000
Au 1.500000 0.500000 -1.000000
Au 1.500000 0.500000 1.000000
Au 1.500000 0.000000 1.500000
Au 1.000000 0.500000 1.500000
Au 1.000000 0.000000 2.000000
Au 1.000000 1.000000 -1.000000
Au 1.500000 1.000000 -0.500000
Au 1.000000 1.500000 -0.500000
Au 1.500000 1.500000 0.000000
Au 1.500000 1.000000 0.500000
Au 1.000000 1.500000 0.500000
Au 1.000000 1.000000 1.000000
Au 1.000000 2.000000 0.000000
Au 2.000000 -0.500000 -0.500000
Au 2.000000 -1.000000 0.000000
Au 2.000000 -0.500000 0.500000
Au 2.000000 0.000000 -1.000000
Au 2.000000 0.500000 -0.500000
Au 2.000000 0.000000 0.000000
Au 2.000000 0.500000 0.500000
Au 2.000000 0.000000 1.000000
Au 2.000000 1.000000 0.000000
V 0.000000 0.000000 0.000000
S -1.145795 -1.145795 -1.145795
CH2 -1.229405 -1.509818 -1.244656
CH2 -1.510116 -1.510132 -1.510132
CH2 -1.593725 -1.874155 -1.608993
CH2 -1.874436 -1.874469 -1.874469
CH2 -1.958045 -2.238492 -1.973330
CH2 -2.238756 -2.238806 -2.238806
CH2 -2.322366 -2.602829 -2.337667
CH2 -2.603077 -2.603143 -2.603143
CH2 -2.686686 -2.967166 -2.702004
CH2 -2.967397 -2.967480 -2.967480
CH2 -3.051006 -3.331503 -3.066340
CH3 -3.331717 -3.331817 -3.331817
S -1.145795 -1.145795 1.145795
CH2 -1.229405 -1.509818 1.244656
CH2 -1.510116 -1.510132 1.510132
CH2 -1.593725 -1.874155 1.608993
CH2 -1.874436 -1.874469 1.874469
CH2 -1.958045 -2.238492 1.973330
CH2 -2.238756 -2.238806 2.238806
CH2 -2.322366 -2.602829 2.337667
CH2 -2.603077 -2.603143 2.603143
CH2 -2.686686 -2.967166 2.702004
CH2 -2.967397 -2.967480 2.967480
CH2 -3.051006 -3.331503 3.066340
CH3 -3.331717 -3.331817 3.331817
S -1.145795 1.145795 -1.145795
CH2 -1.426506 1.146110 -1.411272
CH2 -1.510116 1.510132 -1.510132
CH2 -1.790827 1.510446 -1.775609
CH2 -1.874436 1.874469 -1.874469
CH2 -2.155147 1.874784 -2.139946
CH2 -2.238756 2.238806 -2.238806
CH2 -2.519467 2.239120 -2.504283
CH2 -2.603077 2.603143 -2.603143
CH2 -2.883787 2.603457 -2.868620
CH2 -2.967397 2.967480 -2.967480
CH2 -3.248108 2.967794 -3.232957
CH3 -3.331717 3.331817 -3.331817
S -1.145795 1.145795 1.145795
CH2 -1.426506 1.146110 1.411272
CH2 -1.510116 1.510132 1.510132
CH2 -1.790827 1.510446 1.775609
CH2 -1.874436 1.874469 1.874469
CH2 -2.155147 1.874784 2.139946
CH2 -2.238756 2.238806 2.238806
CH2 -2.519467 2.239120 2.504283
CH2 -2.603077 2.603143 2.603143
CH2 -2.883787 2.603457 2.868620
CH2 -2.967397 2.967480 2.967480
CH2 -3.248108 2.967794 3.232957
CH3 -3.331717 3.331817 3.331817
S 1.145795 -1.145795 -1.145795
CH2 1.426506 -1.146110 -1.411272
CH2 1.510116 -1.510132 -1.510132
CH2 1.790827 -1.510446 -1.775609
CH2 1.874436 -1.874469 -1.874469
CH2 2.155147 -1.874784 -2.139946
CH2 2.238756 -2.238806 -2.238806
CH2 2.519467 -2.239120 -2.504283
CH2 2.603077 -2.603143 -2.603143
CH2 2.883787 -2.603457 -2.868620
CH2 2.967397 -2.967480 -2.967480
CH2 3.248108 -2.967794 -3.232957
CH3 3.331717 -3.331817 -3.331817
S 1.145795 -1.145795 1.145795
CH2 1.426506 -1.146110 1.411272
CH2 1.510116 -1.510132 1.510132
CH2 1.790827 -1.510446 1.775609
CH2 1.874436 -1.874469 1.874469
CH2 2.155147 -1.874784 2.139946
CH2 2.238756 -2.238806 2.238806
CH2 2.519467 -2.239120 2.504283
CH2 2.603077 -2.603143 2.603143
CH2 2.883787 -2.603457 2.868620
CH2 2.967397 -2.967480 2.967480
CH2 3.248108 -2.967794 3.232957
CH3 3.331717 -3.331817 3.331817
S 1.145795 1.145795 -1.145795
CH2 1.229405 1.509818 -1.244656
CH2 1.510116 1.510132 -1.510132
CH2 1.593725 1.874155 -1.608993
CH2 1.874436 1.874469 -1.874469
CH2 1.958045 2.238492 -1.973330
CH2 2.238756 2.238806 -2.238806
CH2 2.322366 2.602829 -2.337667
CH2 2.603077 2.603143 -2.603143
CH2 2.686686 2.967166 -2.702004
CH2 2.967397 2.967480 -2.967480
CH2 3.051006 3.331503 -3.066340
CH3 3.331717 3.331817 -3.331817
S 1.145795 1.145795 1.145795
CH2 1.229405 1.509818 1.244656
CH2 1.510116 1.510132 1.510132
CH2 1.593725 1.874155 1.608993
CH2 1.874436 1.874469 1.874469
CH2 1.958045 2.238492 1.973330
CH2 2.238756 2.238806 2.238806
CH2 2.322366 2.602829 2.337667
CH2 2.603077 2.603143 2.603143
CH2 2.686686 2.967166 2.702004
CH2 2.967397 2.967480 2.967480
CH2 3.051006 3.331503 3.066340
CH3 3.331717 3.331817 3.331817
S -0.428070 -1.891409 -1.159739
CH2 -0.426856 -2.277499 -1.145250
CH2 -0.547570 -2.419639 -1.483630
CH2 -0.546356 -2.805729 -1.469140
CH2 -0.667070 -2.947869 -1.807520
CH2 -0.665857 -3.333959 -1.793031
CH2 -0.786570 -3.476099 -2.131410
CH2 -0.785357 -3.862188 -2.116921
CH2 -0.906071 -4.004329 -2.455301
CH2 -0.904857 -4.390418 -2.440811
CH2 -1.025571 -4.532559 -2.779191
CH2 -1.024357 -4.918648 -2.764702
CH3 -1.145071 -5.060788 -3.103081
S -0.428070 -1.159739 -1.891409
CH2 -0.479382 -1.512492 -2.040438
CH2 -0.547570 -1.483630 -2.419639
CH2 -0.598882 -1.836382 -2.568667
CH2 -0.667070 -1.807520 -2.947869
CH2 -0.718383 -2.160272 -3.096897
CH2 -0.786570 -2.131410 -3.476099
CH2 -0.837883 -2.484162 -3.625127
CH2 -0.906071 -2.455301 -4.004329
CH2 -0.957383 -2.808053 -4.153357
CH2 -1.025571 -2.779191 -4.532559
CH2 -1.076883 -3.131943 -4.681587
CH3 -1.145071 -3.103081 -5.060788
S -0.428070 -1.159739 1.891409
CH2 -0.479382 -1.512492 2.040438
CH2 -0.547570 -1.483630 2.419639
CH2 -0.598882 -1.836382 2.568667
CH2 -0.667070 -1.807520 2.947869
CH2 -0.718383 -2.160272 3.096897
CH2 -0.786570 -2.131410 3.476099
CH2 -0.837883 -2.484162 3.625127
CH2 -0.906071 -2.455301 4.004329
CH2 -0.957383 -2.808053 4.153357
CH2 -1.025571 -2.779191 4.532559
CH2 -1.076883 -3.131943 4.681587
CH3 -1.145071 -3.103081 5.060788
S -0.428070 -1.891409 1.159739
CH2 -0.426856 -2.277499 1.145250
CH2 -0.547570 -2.419639 1.483630
CH2 -0.546356 -2.805729 1.469140
CH2 -0.667070 -2.947869 1.807520
CH2 -0.665857 -3.333959 1.793031
CH2 -0.786570 -3.476099 2.131410
CH2 -0.785357 -3.862188 2.116921
CH2 -0.906071 -4.004329 2.455301
CH2 -0.904857 -4.390418 2.440811
CH2 -1.025571 -4.532559 2.779191
CH2 -1.024357 -4.918648 2.764702
CH3 -1.145071 -5.060788 3.103081
S -0.428070 1.891409 -1.159739
CH2 -0.548784 2.033550 -1.498119
CH2 -0.547570 2.419639 -1.483630
CH2 -0.668284 2.561780 -1.822009
CH2 -0.667070 2.947869 -1.807520
CH2 -0.787784 3.090009 -2.145899
CH2 -0.786570 3.476099 -2.131410
CH2 -0.907284 3.618239 -2.469790
CH2 -0.906071 4.004329 -2.455301
CH2 -1.026785 4.146469 -2.793680
CH2 -1.025571 4.532559 -2.779191
CH2 -1.146285 4.674699 -3.117570
CH3 -1.145071 5.060788 -3.103081
S -0.428070 1.891409 1.159739
CH2 -0.548784 2.033550 1.498119
CH2 -0.547570 2.419639 1.483630
CH2 -0.668284 2.561780 1.822009
CH2 -0.667070 2.947869 1.807520
CH2 -0.787784 3.090009 2.145899
CH2 -0.786570 3.476099 2.131410
CH2 -0.907284 3.618239 2.469790
CH2 -0.906071 4.004329 2.455301
CH2 -1.026785 4.146469 2.793680
CH2 -1.025571 4.532559 2.779191
CH2 -1.146285 4.674699 3.117570
CH3 -1.145071 5.060788 3.103081
S -0.428070 1.159739 -1.891409
CH2 -0.496258 1.130878 -2.270611
CH2 -0.547570 1.483630 -2.419639
CH2 -0.615758 1.454768 -2.798841
CH2 -0.667070 1.807520 -2.947869
CH2 -0.735258 1.778658 -3.327071
CH2 -0.786570 2.131410 -3.476099
CH2 -0.854758 2.102548 -3.855301
CH2 -0.906071 2.455301 -4.004329
CH2 -0.974259 2.426439 -4.383530
CH2 -1.025571 2.779191 -4.532559
CH2 -1.093759 2.750329 -4.911760
CH3 -1.145071 3.103081 -5.060788
S -0.428070 1.159739 1.891409
CH2 -0.496258 1.130878 2.270611
CH2 -0.547570 1.483630 2.419639
CH2 -0.615758 1.454768 2.798841
CH2 -0.667070 1.807520 2.947869
CH2 -0.735258 1.778658 3.327071
CH2 -0.786570 2.131410 3.476099
CH2 -0.854758 2.102548 3.855301
CH2 -0.906071 2.455301 4.004329
CH2 -0.974259 2.426439 4.383530
CH2 -1.025571 2.779191 4.532559
CH2 -1.093759 2.750329 4.911760
CH3 -1.145071 3.103081 5.060788
S -1.891409 -0.428070 -1.159739
CH2 -2.114449 -0.706586 -1.307924
CH2 -2.419628 -0.547620 -1.483630
CH2 -2.642667 -0.826136 -1.631814
CH2 -2.947846 -0.667171 -1.807520
CH2 -3.170886 -0.945687 -1.955705
CH2 -3.476065 -0.786722 -2.131410
CH2 -3.699104 -1.065238 -2.279595
CH2 -4.004283 -0.906272 -2.455301
CH2 -4.227323 -1.184788 -2.603485
CH2 -4.532502 -1.025823 -2.779191
CH2 -4.755541 -1.304339 -2.927376
CH3 -5.060720 -1.145374 -3.103081
S -1.159739 -0.428070 -1.891409
CH2 -1.285022 -0.706144 -2.128591
CH2 -1.483611 -0.547620 -2.419639
CH2 -1.608894 -0.825695 -2.656821
CH2 -1.807483 -0.667171 -2.947869
CH2 -1.932765 -0.945246 -3.185051
CH2 -2.131355 -0.786722 -3.476099
CH2 -2.256637 -1.064796 -3.713281
CH2 -2.455226 -0.906272 -4.004329
CH2 -2.580509 -1.184347 -4.241511
CH2 -2.779098 -1.025823 -4.532559
CH2 -2.904380 -1.303898 -4.769740
CH3 -3.102969 -1.145374 -5.060788
S -1.159739 -0.428070 1.891409
CH2 -1.285022 -0.706144 2.128591
CH2 -1.483611 -0.547620 2.419639
CH2 -1.608894 -0.825695 2.656821
CH2 -1.807483 -0.667171 2.947869
CH2 -1.932765 -0.945246 3.185051
CH2 -2.131355 -0.786722 3.476099
CH2 -2.256637 -1.064796 3.713281
CH2 -2.455226 -0.906272 4.004329
CH2 -2.580509 -1.184347 4.241511
CH2 -2.779098 -1.025823 4.532559
CH2 -2.904380 -1.303898 4.769740
CH3 -3.102969 -1.145374 5.060788
S -1.891409 -0.428070 1.159739
CH2 -2.114449 -0.706586 1.307924
CH2 -2.419628 -0.547620 1.483630
CH2 -2.642667 -0.826136 1.631814
CH2 -2.947846 -0.667171 1.807520
CH2 -3.170886 -0.945687 1.955705
CH2 -3.476065 -0.786722 2.131410
CH2 -3.699104 -1.065238 2.279595
CH2 -4.004283 -0.906272 2.455301
CH2 -4.227323 -1.184788 2.603485
CH2 -4.532502 -1.025823 2.779191
CH2 -4.755541 -1.304339 2.927376
CH3 -5.060720 -1.145374 3.103081
S -1.891409 -1.159739 -0.428070
CH2 -2.043578 -1.513056 -0.463971
CH2 -2.419628 -1.483630 -0.547620
CH2 -2.571796 -1.836946 -0.583521
CH2 -2.947846 -1.807520 -0.667171
CH2 -3.100015 -2.160836 -0.703072
CH2 -3.476065 -2.131410 -0.786722
CH2 -3.628234 -2.484726 -0.822623
CH2 -4.004283 -2.455301 -0.906272
CH2 -4.156452 -2.808617 -0.942173
CH2 -4.532502 -2.779191 -1.025823
CH2 -4.684670 -3.132507 -1.061724
CH3 -5.060720 -3.103081 -1.145374
S -1.159739 -1.891409 -0.428070
CH2 -1.146123 -2.277515 -0.424417
CH2 -1.483611 -2.419639 -0.547620
CH2 -1.469995 -2.805745 -0.543967
CH2 -1.807483 -2.947869 -0.667171
CH2 -1.793867 -3.333975 -0.663518
CH2 -2.131355 -3.476099 -0.786722
CH2 -2.117738 -3.862205 -0.783068
CH2 -2.455226 -4.004329 -0.906272
CH2 -2.441610 -4.390435 -0.902619
CH2 -2.779098 -4.532559 -1.025823
CH2 -2.765482 -4.918664 -1.022170
CH3 -3.102969 -5.060788 -1.145374
S -1.891409 -1.159739 0.428070
CH2 -2.043578 -1.513056 0.463971
CH2 -2.419628 -1.483630 0.547620
CH2 -2.571796 -1.836946 0.583521
CH2 -2.947846 -1.807520 0.667171
CH2 -3.100015 -2.160836 0.703072
CH2 -3.476065 -2.131410 0.786722
CH2 -3.628234 -2.484726 0.822623
CH2 -4.004283 -2.455301 0.906272
CH2 -4.156452 -2.808617 0.942173
CH2 -4.532502 -2.779191 1.025823
CH2 -4.684670 -3.132507 1.061724
CH3 -5.060720 -3.103081 1.145374
S -1.159739 -1.891409 0.428070
CH2 -1.146123 -2.277515 0.424417
CH2 -1.483611 -2.419639 0.547620
CH2 -1.469995 -2.805745 0.543967
CH2 -1.807483 -2.947869 0.667171
CH2 -1.793867 -3.333975 0.663518
CH2 -2.131355 -3.476099 0.786722
CH2 -2.117738 -3.862205 0.783068
CH2 -2.455226 -4.004329 0.906272
CH2 -2.441610 -4.390435 0.902619
CH2 -2.779098 -4.532559 1.025823
CH2 -2.765482 -4.918664 1.022170
CH3 -3.102969 -5.060788 1.145374
S -1.159739 1.891409 -0.428070
CH2 -1.497227 2.033533 -0.551273
CH2 -1.483611 2.419639 -0.547620
CH2 -1.821099 2.561763 -0.670824
CH2 -1.807483 2.947869 -0.667171
CH2 -2.144971 3.089993 -0.790375
CH2 -2.131355 3.476099 -0.786722
CH2 -2.468842 3.618223 -0.909926
CH2 -2.455226 4.004329 -0.906272
CH2 -2.792714 4.146453 -1.029476
CH2 -2.779098 4.532559 -1.025823
CH2 -3.116586 4.674683 -1.149027
CH3 -3.102969 5.060788 -1.145374
S -1.159739 1.891409 0.428070
CH2 -1.497227 2.033533 0.551273
CH2 -1.483611 2.419639 0.547620
CH2 -1.821099 2.561763 0.670824
CH2 -1.807483 2.947869 0.667171
CH2 -2.144971 3.089993 0.790375
CH2 -2.131355 3.476099 0.786722
CH2 -2.468842 3.618223 0.909926
CH2 -2.455226 4.004329 0.906272
CH2 -2.792714 4.146453 1.029476
CH2 -2.779098 4.532559 1.025823
CH2 -3.116586 4.674683 1.149027
CH3 -3.102969 5.060788 1.145374
S -1.891409 1.159739 -0.428070
CH2 -2.267459 1.130314 -0.511719
CH2 -2.419628 1.483630 -0.547620
CH2 -2.795677 1.454204 -0.631270
CH2 -2.947846 1.807520 -0.667171
CH2 -3.323896 1.778094 -0.750821
CH2 -3.476065 2.131410 -0.786722
CH2 -3.852114 2.101985 -0.870371
CH2 -4.004283 2.455301 -0.906272
CH2 -4.380333 2.425875 -0.989922
CH2 -4.532502 2.779191 -1.025823
CH2 -4.908551 2.749765 -1.109473
CH3 -5.060720 3.103081 -1.145374
S -1.891409 0.428070 -1.159739
CH2 -2.196588 0.269105 -1.335445
CH2 -2.419628 0.547620 -1.483630
CH2 -2.724807 0.388655 -1.659335
CH2 -2.947846 0.667171 -1.807520
CH2 -3.253025 0.508206 -1.983226
CH2 -3.476065 0.786722 -2.131410
CH2 -3.781243 0.627757 -2.307116
CH2 -4.004283 0.906272 -2.455301
CH2 -4.309462 0.747307 -2.631006
CH2 -4.532502 1.025823 -2.779191
CH2 -4.837680 0.866858 -2.954896
CH3 -5.060720 1.145374 -3.103081
S -1.159739 0.428070 -1.891409
CH2 -1.358329 0.269546 -2.182457
CH2 -1.483611 0.547620 -2.419639
CH2 -1.682201 0.389096 -2.710687
CH2 -1.807483 0.667171 -2.947869
CH2 -2.006072 0.508647 -3.238917
CH2 -2.131355 0.786722 -3.476099
CH2 -2.329944 0.628198 -3.767147
CH2 -2.455226 0.906272 -4.004329
CH2 -2.653815 0.747748 -4.295377
CH2 -2.779098 1.025823 -4.532559
CH2 -2.977687 0.867299 -4.823607
CH3 -3.102969 1.145374 -5.060788
S -1.159739 0.428070 1.891409
CH2 -1.358329 0.269546 2.182457
CH2 -1.483611 0.547620 2.419639
CH2 -1.682201 0.389096 2.710687
CH2 -1.807483 0.667171 2.947869
CH2 -2.006072 0.508647 3.238917
CH2 -2.131355 0.786722 3.476099
CH2 -2.329944 0.628198 3.767147
CH2 -2.455226 0.906272 4.004329
CH2 -2.653815 0.747748 4.295377
CH2 -2.779098 1.025823 4.532559
CH2 -2.977687 0.867299 4.823607
CH3 -3.102969 1.145374 5.060788
S -1.891409 0.428070 1.159739
CH2 -2.196588 0.269105 1.335445
CH2 -2.419628 0.547620 1.483630
CH2 -2.724807 0.388655 1.659335
CH2 -2.947846 0.667171 1.807520
CH2 -3.253025 0.508206 1.983226
CH2 -3.476065 0.786722 2.131410
CH2 -3.781243 0.627757 2.307116
CH2 -4.004283 0.906272 2.455301
CH2 -4.309462 0.747307 2.631006
CH2 -4.532502 1.025823 2.779191
CH2 -4.837680 0.866858 2.954896
CH3 -5.060720 1.145374 3.103081
S -1.891409 1.159739 0.428070
CH2 -2.267459 1.130314 0.511719
CH2 -2.419628 1.483630 0.547620
CH2 -2.795677 1.454204 0.631270
CH2 -2.947846 1.807520 0.667171
CH2 -3.323896 1.778094 0.750821
CH2 -3.476065 2.131410 0.786722
CH2 -3.852114 2.101985 0.870371
CH2 -4.004283 2.455301 0.906272
CH2 -4.380333 2.425875 0.989922
CH2 -4.532502 2.779191 1.025823
CH2 -4.908551 2.749765 1.109473
CH3 -5.060720 3.103081 1.145374
S 1.891409 -0.428070 -1.159739
CH2 2.196588 -0.269105 -1.335445
CH2 2.419628 -0.547620 -1.483630
CH2 2.724807 -0.388655 -1.659335
CH2 2.947846 -0.667171 -1.807520
CH2 3.253025 -0.508206 -1.983226
CH2 3.476065 -0.786722 -2.131410
CH2 3.781243 -0.627757 -2.307116
CH2 4.004283 -0.906272 -2.455301
CH2 4.309462 -0.747307 -2.631006
CH2 4.532502 -1.025823 -2.779191
CH2 4.837680 -0.866858 -2.954896
CH3 5.060720 -1.145374 -3.103081
S 1.891409 -0.428070 1.159739
CH2 2.196588 -0.269105 1.335445
CH2 2.419628 -0.547620 1.483630
CH2 2.724807 -0.388655 1.659335
CH2 2.947846 -0.667171 1.807520
CH2 3.253025 -0.508206 1.983226
CH2 3.476065 -0.786722 2.131410
CH2 3.781243 -0.627757 2.307116
CH2 4.004283 -0.906272 2.455301
CH2 4.309462 -0.747307 2.631006
CH2 4.532502 -1.025823 2.779191
CH2 4.837680 -0.866858 2.954896
CH3 5.060720 -1.145374 3.103081
S 1.891409 -1.159739 -0.428070
CH2 2.267459 -1.130314 -0.511719
CH2 2.419628 -1.483630 -0.547620
CH2 2.795677 -1.454204 -0.631270
CH2 2.947846 -1.807520 -0.667171
CH2 3.323896 -1.778094 -0.750821
CH2 3.476065 -2.131410 -0.786722
CH2 3.852114 -2.101985 -0.870371
CH2 4.004283 -2.455301 -0.906272
CH2 4.380333 -2.425875 -0.989922
CH2 4.532502 -2.779191 -1.025823
CH2 4.908551 -2.749765 -1.109473
CH3 5.060720 -3.103081 -1.145374
S 1.891409 -1.159739 0.428070
CH2 2.267459 -1.130314 0.511719
CH2 2.419628 -1.483630 0.547620
CH2 2.795677 -1.454204 0.631270
CH2 2.947846 -1.807520 0.667171
CH2 3.323896 -1.778094 0.750821
CH2 3.476065 -2.131410 0.786722
CH2 3.852114 -2.101985 0.870371
CH2 4.004283 -2.455301 0.906272
CH2 4.380333 -2.425875 0.989922
CH2 4.532502 -2.779191 1.025823
CH2 4.908551 -2.749765 1.109473
CH3 5.060720 -3.103081 1.145374
S 1.891409 1.159739 -0.428070
CH2 2.043578 1.513056 -0.463971
CH2 2.419628 1.483630 -0.547620
CH2 2.571796 1.836946 -0.583521
CH2 2.947846 1.807520 -0.667171
CH2 3.100015 2.160836 -0.703072
CH2 3.476065 2.131410 -0.786722
CH2 3.628234 2.484726 -0.822623
CH2 4.004283 2.455301 -0.906272
CH2 4.156452 2.808617 -0.942173
CH2 4.532502 2.779191 -1.025823
CH2 4.684670 3.132507 -1.061724
CH3 5.060720 3.103081 -1.145374
S 1.891409 0.428070 -1.159739
CH2 2.114449 0.706586 -1.307924
CH2 2.419628 0.547620 -1.483630
CH2 2.642667 0.826136 -1.631814
CH2 2.947846 0.667171 -1.807520
CH2 3.170886 0.945687 -1.955705
CH2 3.476065 0.786722 -2.131410
CH2 3.699104 1.065238 -2.279595
CH2 4.004283 0.906272 -2.455301
CH2 4.227323 1.184788 -2.603485
CH2 4.532502 1.025823 -2.779191
CH2 4.755541 1.304339 -2.927376
CH3 5.060720 1.145374 -3.103081
S 1.891409 0.428070 1.159739
CH2 2.114449 0.706586 1.307924
CH2 2.419628 0.547620 1.483630
CH2 2.642667 0.826136 1.631814
CH2 2.947846 0.667171 1.807520
CH2 3.170886 0.945687 1.955705
CH2 3.476065 0.786722 2.131410
CH2 3.699104 1.065238 2.279595
CH2 4.004283 0.906272 2.455301
CH2 4.227323 1.184788 2.603485
CH2 4.532502 1.025823 2.779191
CH2 4.755541 1.304339 2.927376
CH3 5.060720 1.145374 3.103081
S 1.891409 1.159739 0.428070
CH2 2.043578 1.513056 0.463971
CH2 2.419628 1.483630 0.547620
CH2 2.571796 1.836946 0.583521
CH2 2.947846 1.807520 0.667171
CH2 3.100015 2.160836 0.703072
CH2 3.476065 2.131410 0.786722
CH2 3.628234 2.484726 0.822623
CH2 4.004283 2.455301 0.906272
CH2 4.156452 2.808617 0.942173
CH2 4.532502 2.779191 1.025823
CH2 4.684670 3.132507 1.061724
CH3 5.060720 3.103081 1.145374
S 1.159739 -0.428070 -1.891409
CH2 1.358329 -0.269546 -2.182457
CH2 1.483611 -0.547620 -2.419639
CH2 1.682201 -0.389096 -2.710687
CH2 1.807483 -0.667171 -2.947869
CH2 2.006072 -0.508647 -3.238917
CH2 2.131355 -0.786722 -3.476099
CH2 2.329944 -0.628198 -3.767147
CH2 2.455226 -0.906272 -4.004329
CH2 2.653815 -0.747748 -4.295377
CH2 2.779098 -1.025823 -4.532559
CH2 2.977687 -0.867299 -4.823607
CH3 3.102969 -1.145374 -5.060788
S 1.159739 -0.428070 1.891409
CH2 1.358329 -0.269546 2.182457
CH2 1.483611 -0.547620 2.419639
CH2 1.682201 -0.389096 2.710687
CH2 1.807483 -0.667171 2.947869
CH2 2.006072 -0.508647 3.238917
CH2 2.131355 -0.786722 3.476099
CH2 2.329944 -0.628198 3.767147
CH2 2.455226 -0.906272 4.004329
CH2 2.653815 -0.747748 4.295377
CH2 2.779098 -1.025823 4.532559
CH2 2.977687 -0.867299 4.823607
CH3 3.102969 -1.145374 5.060788
S 1.159739 -1.891409 -0.428070
CH2 1.497227 -2.033533 -0.551273
CH2 1.483611 -2.419639 -0.547620
CH2 1.821099 -2.561763 -0.670824
CH2 1.807483 -2.947869 -0.667171
CH2 2.144971 -3.089993 -0.790375
CH2 2.131355 -3.476099 -0.786722
CH2 2.468842 -3.618223 -0.909926
CH2 2.455226 -4.004329 -0.906272
CH2 2.792714 -4.146453 -1.029476
CH2 2.779098 -4.532559 -1.025823
CH2 3.116586 -4.674683 -1.149027
CH3 3.102969 -5.060788 -1.145374
S 0.428070 -1.891409 -1.159739
CH2 0.548784 -2.033550 -1.498119
CH2 0.547570 -2.419639 -1.483630
CH2 0.668284 -2.561780 -1.822009
CH2 0.667070 -2.947869 -1.807520
CH2 0.787784 -3.090009 -2.145899
CH2 0.786570 -3.476099 -2.131410
CH2 0.907284 -3.618239 -2.469790
CH2 0.906071 -4.004329 -2.455301
CH2 1.026785 -4.146469 -2.793680
CH2 1.025571 -4.532559 -2.779191
CH2 1.146285 -4.674699 -3.117570
CH3 1.145071 -5.060788 -3.103081
S 0.428070 -1.159739 -1.891409
CH2 0.496258 -1.130878 -2.270611
CH2 0.547570 -1.483630 -2.419639
CH2 0.615758 -1.454768 -2.798841
CH2 0.667070 -1.807520 -2.947869
CH2 0.735258 -1.778658 -3.327071
CH2 0.786570 -2.131410 -3.476099
CH2 0.854758 -2.102548 -3.855301
CH2 0.906071 -2.455301 -4.004329
CH2 0.974259 -2.426439 -4.383530
CH2 1.025571 -2.779191 -4.532559
CH2 1.093759 -2.750329 -4.911760
CH3 1.145071 -3.103081 -5.060788
S 0.428070 -1.159739 1.891409
CH2 0.496258 -1.130878 2.270611
CH2 0.547570 -1.483630 2.419639
CH2 0.615758 -1.454768 2.798841
CH2 0.667070 -1.807520 2.947869
CH2 0.735258 -1.778658 3.327071
CH2 0.786570 -2.131410 3.476099
CH2 0.854758 -2.102548 3.855301
CH2 0.906071 -2.455301 4.004329
CH2 0.974259 -2.426439 4.383530
CH2 1.025571 -2.779191 4.532559
CH2 1.093759 -2.750329 4.911760
CH3 1.145071 -3.103081 5.060788
S 0.428070 -1.891409 1.159739
CH2 0.548784 -2.033550 1.498119
CH2 0.547570 -2.419639 1.483630
CH2 0.668284 -2.561780 1.822009
CH2 0.667070 -2.947869 1.807520
CH2 0.787784 -3.090009 2.145899
CH2 0.786570 -3.476099 2.131410
CH2 0.907284 -3.618239 2.469790
CH2 0.906071 -4.004329 2.455301
CH2 1.026785 -4.146469 2.793680
CH2 1.025571 -4.532559 2.779191
CH2 1.146285 -4.674699 3.117570
CH3 1.145071 -5.060788 3.103081
S 1.159739 -1.891409 0.428070
CH2 1.497227 -2.033533 0.551273
CH2 1.483611 -2.419639 0.547620
CH2 1.821099 -2.561763 0.670824
CH2 1.807483 -2.947869 0.667171
CH2 2.144971 -3.089993 0.790375
CH2 2.131355 -3.476099 0.786722
CH2 2.468842 -3.618223 0.909926
CH2 2.455226 -4.004329 0.906272
CH2 2.792714 -4.146453 1.029476
CH2 2.779098 -4.532559 1.025823
CH2 3.116586 -4.674683 1.149027
CH3 3.102969 -5.060788 1.145374
S 1.159739 1.891409 -0.428070
CH2 1.146123 2.277515 -0.424417
CH2 1.483611 2.419639 -0.547620
CH2 1.469995 2.805745 -0.543967
CH2 1.807483 2.947869 -0.667171
CH2 1.793867 3.333975 -0.663518
CH2 2.131355 3.476099 -0.786722
CH2 2.117738 3.862205 -0.783068
CH2 2.455226 4.004329 -0.906272
CH2 2.441610 4.390435 -0.902619
CH2 2.779098 4.532559 -1.025823
CH2 2.765482 4.918664 -1.022170
CH3 3.102969 5.060788 -1.145374
S 0.428070 1.891409 -1.159739
CH2 0.426856 2.277499 -1.145250
CH2 0.547570 2.419639 -1.483630
CH2 0.546356 2.805729 -1.469140
CH2 0.667070 2.947869 -1.807520
CH2 0.665857 3.333959 -1.793031
CH2 0.786570 3.476099 -2.131410
CH2 0.785357 3.862188 -2.116921
CH2 0.906071 4.004329 -2.455301
CH2 0.904857 4.390418 -2.440811
CH2 1.025571 4.532559 -2.779191
CH2 1.024357 4.918648 -2.764702
CH3 1.145071 5.060788 -3.103081
S 0.428070 1.891409 1.159739
CH2 0.426856 2.277499 1.145250
CH2 0.547570 2.419639 1.483630
CH2 0.546356 2.805729 1.469140
CH2 0.667070 2.947869 1.807520
CH2 0.665857 3.333959 1.793031
CH2 0.786570 3.476099 2.131410
CH2 0.785357 3.862188 2.116921
CH2 0.906071 4.004329 2.455301
CH2 0.904857 4.390418 2.440811
CH2 1.025571 4.532559 2.779191
CH2 1.024357 4.918648 2.764702
CH3 1.145071 5.060788 3.103081
S 1.159739 1.891409 0.428070
CH2 1.146123 2.277515 0.424417
CH2 1.483611 2.419639 0.547620
CH2 1.469995 2.805745 0.543967
CH2 1.807483 2.947869 0.667171
CH2 1.793867 3.333975 0.663518
CH2 2.131355 3.476099 0.786722
CH2 2.117738 3.862205 0.783068
CH2 2.455226 4.004329 0.906272
CH2 2.441610 4.390435 0.902619
CH2 2.779098 4.532559 1.025823
CH2 2.765482 4.918664 1.022170
CH3 3.102969 5.060788 1.145374
S 0.428070 1.159739 -1.891409
CH2 0.479382 1.512492 -2.040438
CH2 0.547570 1.483630 -2.419639
CH2 0.598882 1.836382 -2.568667
CH2 0.667070 1.807520 -2.947869
CH2 0.718383 2.160272 -3.096897
CH2 0.786570 2.131410 -3.476099
CH2 0.837883 2.484162 -3.625127
CH2 0.906071 2.455301 -4.004329
CH2 0.957383 2.808053 -4.153357
CH2 1.025571 2.779191 -4.532559
CH2 1.076883 3.131943 -4.681587
CH3 1.145071 3.103081 -5.060788
S 1.159739 0.428070 -1.891409
CH2 1.285022 0.706144 -2.128591
CH2 1.483611 0.547620 -2.419639
CH2 1.608894 0.825695 -2.656821
CH2 1.807483 0.667171 -2.947869
CH2 1.932765 0.945246 -3.185051
CH2 2.131355 0.786722 -3.476099
CH2 2.256637 1.064796 -3.713281
CH2 2.455226 0.906272 -4.004329
CH2 2.580509 1.184347 -4.241511
CH2 2.779098 1.025823 -4.532559
CH2 2.904380 1.303898 -4.769740
CH3 3.102969 1.145374 -5.060788
S 0.428070 1.159739 1.891409
CH2 0.479382 1.512492 2.040438
CH2 0.547570 1.483630 2.419639
CH2 0.598882 1.836382 2.568667
CH2 0.667070 1.807520 2.947869
CH2 0.718383 2.160272 3.096897
CH2 0.786570 2.131410 3.476099
CH2 0.837883 2.484162 3.625127
CH2 0.906071 2.455301 4.004329
CH2 0.957383 2.808053 4.153357
CH2 1.025571 2.779191 4.532559
CH2 1.076883 3.131943 4.681587
CH3 1.145071 3.103081 5.060788
S 1.159739 0.428070 1.891409
CH2 1.285022 0.706144 2.128591
CH2 1.483611 0.547620 2.419639
CH2 1.608894 0.825695 2.656821
CH2 1.807483 0.667171 2.947869
CH2 1.932765 0.945246 3.185051
CH2 2.131355 0.786722 3.476099
CH2 2.256637 1.064796 3.713281
CH2 2.455226 0.906272 4.004329
CH2 2.580509 1.184347 4.241511
CH2 2.779098 1.025823 4.532559
CH2 2.904380 1.303898 4.769740
CH3 3.102969 1.145374 5.060788
S -2.252525 0.732106 0.000000
CH2 -2.621520 0.617565 0.000000
CH2 -2.852663 0.927160 0.000000
CH2 -3.221658 0.812619 0.000000
CH2 -3.452802 1.122214 0.000000
CH2 -3.821796 1.007673 0.000000
CH2 -4.052940 1.317268 0.000000
CH2 -4.421934 1.202727 0.000000
CH2 -4.653078 1.512322 0.000000
CH2 -5.022072 1.397782 0.000000
CH2 -5.253216 1.707377 0.000000
CH2 -5.622211 1.592836 0.000000
CH3 -5.853355 1.902431 0.000000
S -2.252525 -0.732106 0.000000
CH2 -2.483669 -1.041701 0.000000
CH2 -2.852663 -0.927160 0.000000
CH2 -3.083807 -1.236755 0.000000
CH2 -3.452802 -1.122214 0.000000
CH2 -3.683945 -1.431809 0.000000
CH2 -4.052940 -1.317268 0.000000
CH2 -4.284084 -1.626863 0.000000
CH2 -4.653078 -1.512322 0.000000
CH2 -4.884222 -1.821917 0.000000
CH2 -5.253216 -1.707377 0.000000
CH2 -5.484360 -2.016971 0.000000
CH3 -5.853355 -1.902431 0.000000
S -2.252525 0.000000 0.732106
CH2 -2.552594 -0.222988 0.829633
CH2 -2.852663 -0.000000 0.927160
CH2 -3.152733 -0.222988 1.024687
CH2 -3.452802 -0.000000 1.122214
CH2 -3.752871 -0.222988 1.219741
CH2 -4.052940 -0.000000 1.317268
CH2 -4.353009 -0.222988 1.414795
CH2 -4.653078 -0.000000 1.512322
CH2 -4.953147 -0.222988 1.609849
CH2 -5.253216 -0.000000 1.707377
CH2 -5.553285 -0.222988 1.804904
CH3 -5.853355 -0.000000 1.902431
S -2.252525 0.000000 -0.732106
CH2 -2.552594 -0.222988 -0.829633
CH2 -2.852663 0.000000 -0.927160
CH2 -3.152733 -0.222988 -1.024687
CH2 -3.452802 0.000000 -1.122214
CH2 -3.752871 -0.222988 -1.219741
CH2 -4.052940 0.000000 -1.317268
CH2 -4.353009 -0.222988 -1.414795
CH2 -4.653078 0.000000 -1.512322
CH2 -4.953147 -0.222988 -1.609849
CH2 -5.253216 0.000000 -1.707377
CH2 -5.553285 -0.222988 -1.804904
CH3 -5.853355 0.000000 -1.902431
S 0.732106 -2.252525 0.000000
CH2 1.041701 -2.483669 0.000000
CH2 0.927160 -2.852663 0.000000
CH2 1.236755 -3.083807 0.000000
CH2 1.122214 -3.452802 0.000000
CH2 1.431809 -3.683945 0.000000
CH2 1.317268 -4.052940 0.000000
CH2 1.626863 -4.284084 0.000000
CH2 1.512322 -4.653078 0.000000
CH2 1.821917 -4.884222 0.000000
CH2 1.707377 -5.253216 0.000000
CH2 2.016971 -5.484360 0.000000
CH3 1.902431 -5.853355 0.000000
S -0.732106 -2.252525 0.000000
CH2 -0.617565 -2.621520 0.000000
CH2 -0.927160 -2.852663 0.000000
CH2 -0.812619 -3.221658 0.000000
CH2 -1.122214 -3.452802 0.000000
CH2 -1.007673 -3.821796 0.000000
CH2 -1.317268 -4.052940 0.000000
CH2 -1.202727 -4.421934 0.000000
CH2 -1.512322 -4.653078 0.000000
CH2 -1.397782 -5.022072 0.000000
CH2 -1.707377 -5.253216 0.000000
CH2 -1.592836 -5.622211 0.000000
CH3 -1.902431 -5.853355 0.000000
S 0.000000 -2.252525 0.732106
CH2 0.000000 -2.621520 0.617565
CH2 -0.000000 -2.852663 0.927160
CH2 0.000000 -3.221658 0.812619
CH2 -0.000000 -3.452802 1.122214
CH2 0.000000 -3.821796 1.007673
CH2 -0.000000 -4.052940 1.317268
CH2 0.000000 -4.421934 1.202727
CH2 -0.000000 -4.653078 1.512322
CH2 0.000000 -5.022072 1.397782
CH2 -0.000000 -5.253216 1.707377
CH2 0.000000 -5.622211 1.592836
CH3 -0.000000 -5.853355 1.902431
S 0.000000 -2.252525 -0.732106
CH2 0.000000 -2.621520 -0.617565
CH2 -0.000000 -2.852663 -0.927160
CH2 0.000000 -3.221658 -0.812619
CH2 -0.000000 -3.452802 -1.122214
CH2 0.000000 -3.821796 -1.007673
CH2 -0.000000 -4.052940 -1.317268
CH2 0.000000 -4.421934 -1.202727
CH2 -0.000000 -4.653078 -1.512322
CH2 0.000000 -5.022072 -1.397782
CH2 -0.000000 -5.253216 -1.707377
CH2 0.000000 -5.622211 -1.592836
CH3 -0.000000 -5.853355 -1.902431
S 0.732106 0.000000 -2.252525
CH2 0.829633 0.222988 -2.552594
CH2 0.927160 0.000000 -2.852663
CH2 1.024687 0.222988 -3.152733
CH2 1.122214 0.000000 -3.452802
CH2 1.219741 0.222988 -3.752871
CH2 1.317268 0.000000 -4.052940
CH2 1.414795 0.222988 -4.353009
CH2 1.512322 0.000000 -4.653078
CH2 1.609849 0.222988 -4.953147
CH2 1.707377 0.000000 -5.253216
CH2 1.804904 0.222988 -5.553285
CH3 1.902431 0.000000 -5.853355
S -0.732106 0.000000 -2.252525
CH2 -0.829633 -0.222988 -2.552594
CH2 -0.927160 0.000000 -2.852663
CH2 -1.024687 -0.222988 -3.152733
CH2 -1.122214 0.000000 -3.452802
CH2 -1.219741 -0.222988 -3.752871
CH2 -1.317268 0.000000 -4.052940
CH2 -1.414795 -0.222988 -4.353009
CH2 -1.512322 0.000000 -4.653078
CH2 -1.609849 -0.222988 -4.953147
CH2 -1.707377 0.000000 -5.253216
CH2 -1.804904 -0.222988 -5.553285
CH3 -1.902431 0.000000 -5.853355
S 0.000000 0.732106 -2.252525
CH2 0.000000 1.041701 -2.483669
CH2 -0.000000 0.927160 -2.852663
CH2 0.000000 1.236755 -3.083807
CH2 -0.000000 1.122214 -3.452802
CH2 0.000000 1.431809 -3.683945
CH2 -0.000000 1.317268 -4.052940
CH2 0.000000 1.626863 -4.284084
CH2 -0.000000 1.512322 -4.653078
CH2 0.000000 1.821917 -4.884222
CH2 -0.000000 1.707377 -5.253216
CH2 0.000000 2.016971 -5.484360
CH3 -0.000000 1.902431 -5.853355
S 0.000000 -0.732106 -2.252525
CH2 0.000000 -1.041701 -2.483669
CH2 -0.000000 -0.927160 -2.852663
CH2 0.000000 -1.236755 -3.083807
CH2 -0.000000 -1.122214 -3.452802
CH2 0.000000 -1.431809 -3.683945
CH2 -0.000000 -1.317268 -4.052940
CH2 0.000000 -1.626863 -4.284084
CH2 -0.000000 -1.512322 -4.653078
CH2 0.000000 -1.821917 -4.884222
CH2 -0.000000 -1.707377 -5.253216
CH2 0.000000 -2.016971 -5.484360
CH3 -0.000000 -1.902431 -5.853355
S 0.732106 0.000000 2.252525
CH2 0.829633 0.222988 2.552594
CH2 0.927160 0.000000 2.852663
CH2 1.024687 0.222988 3.152733
CH2 1.122214 0.000000 3.452802
CH2 1.219741 0.222988 3.752871
CH2 1.317268 0.000000 4.052940
CH2 1.414795 0.222988 4.353009
CH2 1.512322 0.000000 4.653078
CH2 1.609849 0.222988 4.953147
CH2 1.707377 0.000000 5.253216
CH2 1.804904 0.222988 5.553285
CH3 1.902431 0.000000 5.853355
S -0.732106 0.000000 2.252525
CH2 -0.829633 -0.222988 2.552594
CH2 -0.927160 0.000000 2.852663
CH2 -1.024687 -0.222988 3.152733
CH2 -1.122214 0.000000 3.452802
CH2 -1.219741 -0.222988 3.752871
CH2 -1.317268 0.000000 4.052940
CH2 -1.414795 -0.222988 4.353009
CH2 -1.512322 0.000000 4.653078
CH2 -1.609849 -0.222988 4.953147
CH2 -1.707377 0.000000 5.253216
CH2 -1.804904 -0.222988 5.553285
CH3 -1.902431 0.000000 5.853355
S 0.000000 0.732106 2.252525
CH2 -0.000000 1.041701 2.483669
CH2 0.000000 0.927160 2.852663
CH2 -0.000000 1.236755 3.083807
CH2 0.000000 1.122214 3.452802
CH2 -0.000000 1.431809 3.683945
CH2 0.000000 1.317268 4.052940
CH2 -0.000000 1.626863 4.284084
CH2 0.000000 1.512322 4.653078
CH2 -0.000000 1.821917 4.884222
CH2 0.000000 1.707377 5.253216
CH2 -0.000000 2.016971 5.484360
CH3 0.000000 1.902431 5.853355
S 0.000000 -0.732106 2.252525
CH2 0.000000 -1.041701 2.483669
CH2 -0.000000 -0.927160 2.852663
CH2 0.000000 -1.236755 3.083807
CH2 -0.000000 -1.122214 3.452802
CH2 0.000000 -1.431809 3.683945
CH2 -0.000000 -1.317268 4.052940
CH2 0.000000 -1.626863 4.284084
CH2 -0.000000 -1.512322 4.653078
CH2 0.000000 -1.821917 4.884222
CH2 -0.000000 -1.707377 5.253216
CH2 0.000000 -2.016971 5.484360
CH3 -0.000000 -1.902431 5.853355
S 0.732106 2.252525 0.000000
CH2 0.617565 2.621520 0.000000
CH2 0.927160 2.852663 0.000000
CH2 0.812619 3.221658 0.000000
CH2 1.122214 3.452802 0.000000
CH2 1.007673 3.821796 0.000000
CH2 1.317268 4.052940 0.000000
CH2 1.202727 4.421934 0.000000
CH2 1.512322 4.653078 0.000000
CH2 1.397782 5.022072 0.000000
CH2 1.707377 5.253216 0.000000
CH2 1.592836 5.622211 0.000000
CH3 1.902431 5.853355 0.000000
S -0.732106 2.252525 0.000000
CH2 -1.041701 2.483669 0.000000
CH2 -0.927160 2.852663 0.000000
CH2 -1.236755 3.083807 0.000000
CH2 -1.122214 3.452802 0.000000
CH2 -1.431809 3.683945 0.000000
CH2 -1.317268 4.052940 0.000000
CH2 -1.626863 4.284084 0.000000
CH2 -1.512322 4.653078 0.000000
CH2 -1.821917 4.884222 0.000000
CH2 -1.707377 5.253216 0.000000
CH2 -2.016971 5.484360 0.000000
CH3 -1.902431 5.853355 0.000000
S 0.000000 2.252525 0.732106
CH2 -0.000000 2.621520 0.617565
CH2 0.000000 2.852663 0.927160
CH2 -0.000000 3.221658 0.812619
CH2 0.000000 3.452802 1.122214
CH2 -0.000000 3.821796 1.007673
CH2 0.000000 4.052940 1.317268
CH2 -0.000000 4.421934 1.202727
CH2 0.000000 4.653078 1.512322
CH2 -0.000000 5.022072 1.397782
CH2 0.000000 5.253216 1.707377
CH2 -0.000000 5.622211 1.592836
CH3 0.000000 5.853355 1.902431
S 0.000000 2.252525 -0.732106
CH2 0.000000 2.621520 -0.617565
CH2 -0.000000 2.852663 -0.927160
CH2 0.000000 3.221658 -0.812619
CH2 -0.000000 3.452802 -1.122214
CH2 0.000000 3.821796 -1.007673
CH2 -0.000000 4.052940 -1.317268
CH2 0.000000 4.421934 -1.202727
CH2 -0.000000 4.653078 -1.512322
CH2 0.000000 5.022072 -1.397782
CH2 -0.000000 5.253216 -1.707377
CH2 0.000000 5.622211 -1.592836
CH3 -0.000000 5.853355 -1.902431
S 2.252525 0.732106 0.000000
CH2 2.483669 1.041701 0.000000
CH2 2.852663 0.927160 0.000000
CH2 3.083807 1.236755 0.000000
CH2 3.452802 1.122214 0.000000
CH2 3.683945 1.431809 0.000000
CH2 4.052940 1.317268 0.000000
CH2 4.284084 1.626863 0.000000
CH2 4.653078 1.512322 0.000000
CH2 4.884222 1.821917 0.000000
CH2 5.253216 1.707377 0.000000
CH2 5.484360 2.016971 0.000000
CH3 5.853355 1.902431 0.000000
S 2.252525 -0.732106 0.000000
CH2 2.621520 -0.617565 0.000000
CH2 2.852663 -0.927160 0.000000
CH2 3.221658 -0.812619 0.000000
CH2 3.452802 -1.122214 0.000000
CH2 3.821796 -1.007673 0.000000
CH2 4.052940 -1.317268 0.000000
CH2 4.421934 -1.202727 0.000000
CH2 4.653078 -1.512322 0.000000
CH2 5.022072 -1.397782 0.000000
CH2 5.253216 -1.707377 0.000000
CH2 5.622211 -1.592836 0.000000
CH3 5.853355 -1.902431 0.000000
S 2.252525 0.000000 0.732106
CH2 2.552594 0.222988 0.829633
CH2 2.852663 0.000000 0.927160
CH2 3.152733 0.222988 1.024687
CH2 3.452802 0.000000 1.122214
CH2 3.752871 0.222988 1.219741
CH2 4.052940 0.000000 1.317268
CH2 4.353009 0.222988 1.414795
CH2 4.653078 0.000000 1.512322
CH2 4.953147 0.222988 1.609849
CH2 5.253216 0.000000 1.707377
CH2 5.553285 0.222988 1.804904
CH3 5.853355 0.000000 1.902431
S 2.252525 0.000000 -0.732106
CH2 2.552594 0.222988 -0.829633
CH2 2.852663 0.000000 -0.927160
CH2 3.152733 0.222988 -1.024687
CH2 3.452802 0.000000 -1.122214
CH2 3.752871 0.222988 -1.219741
CH2 4.052940 0.000000 -1.317268
CH2 4.353009 0.222988 -1.414795
CH2 4.653078 0.000000 -1.512322
CH2 4.953147 0.222988 -1.609849
CH2 5.253216 0.000000 -1.707377
CH2 5.553285 0.222988 -1.804904
CH3 5.853355 0.000000 -1.902431
