12

C -0.3496695 -1.74330176544 0.3496695
C 0.0 0.0 0.0
C 1.0662455 0.259104430723 -1.0662455
C 1.24946 1.76700327764 -1.24946
C 2.3157055 2.02610770837 -2.3157055
C 2.49892 3.53400655529 -2.49892
C 3.5651655 3.79311098601 -3.5651655
C 3.74838 5.30100983293 -3.74838
C 4.8146255 5.56011426365 -4.8146255
C 4.99784 7.06801311057 -4.99784
C 6.0640855 7.32711754129 -6.0640855
C 6.2473 8.83501638821 -6.2473
