1241

Au -1.500000 -1.500000 0.000000
Au -1.500000 -0.500000 -1.000000
Au -1.500000 -1.000000 -0.500000
Au -2.000000 -0.500000 -0.500000
Au -2.000000 -1.000000 0.000000
Au -1.500000 -0.500000 0.000000
Au -1.500000 -1.000000 0.500000
Au -2.000000 -0.500000 0.500000
Au -1.500000 -0.500000 1.000000
Au -1.500000 0.000000 -1.500000
Au -2.000000 0.000000 -1.000000
Au -1.500000 0.500000 -1.000000
Au -1.500000 0.000000 -0.500000
Au -2.000000 0.500000 -0.500000
Au -2.000000 0.000000 0.000000
Au -1.500000 0.500000 0.000000
Au -1.500000 0.000000 0.500000
Au -2.000000 0.500000 0.500000
Au -2.000000 0.000000 1.000000
Au -1.500000 0.500000 1.000000
Au -1.500000 0.000000 1.500000
Au -1.500000 1.000000 -0.500000
Au -2.000000 1.000000 0.000000
Au -1.500000 1.500000 0.000000
Au -1.500000 1.000000 0.500000
Au -0.500000 -1.500000 -1.000000
Au -0.500000 -2.000000 -0.500000
Au -1.000000 -1.500000 -0.500000
Au -1.000000 -2.000000 0.000000
Au -0.500000 -1.500000 0.000000
Au -0.500000 -2.000000 0.500000
Au -1.000000 -1.500000 0.500000
Au -0.500000 -1.500000 1.000000
Au -0.500000 -0.500000 -2.000000
Au -0.500000 -1.000000 -1.500000
Au -1.000000 -0.500000 -1.500000
Au -1.000000 -1.000000 -1.000000
Au -0.500000 -0.500000 -1.000000
Au -0.500000 -1.000000 -0.500000
Au -1.000000 -0.500000 -0.500000
Au -1.000000 -1.000000 0.000000
Au -0.500000 -0.500000 0.000000
Au -0.500000 -1.000000 0.500000
Au -1.000000 -0.500000 0.500000
Au -1.000000 -1.000000 1.000000
Au -0.500000 -0.500000 1.000000
Au -0.500000 -1.000000 1.500000
Au -1.000000 -0.500000 1.500000
Au -0.500000 -0.500000 2.000000
Au -1.000000 0.000000 -2.000000
Au -0.500000 0.500000 -2.000000
Au -0.500000 0.000000 -1.500000
Au -1.000000 0.500000 -1.500000
Au -1.000000 0.000000 -1.000000
Au -0.500000 0.500000 -1.000000
Au -0.500000 0.000000 -0.500000
Au -1.000000 0.500000 -0.500000
Au -1.000000 0.000000 0.000000
Au -0.500000 0.500000 0.000000
Au -0.500000 0.000000 0.500000
Au -1.000000 0.500000 0.500000
Au -1.000000 0.000000 1.000000
Au -0.500000 0.500000 1.000000
Au -0.500000 0.000000 1.500000
Au -1.000000 0.500000 1.500000
Au -1.000000 0.000000 2.000000
Au -0.500000 0.500000 2.000000
Au -0.500000 1.000000 -1.500000
Au -1.000000 1.000000 -1.000000
Au -0.500000 1.500000 -1.000000
Au -0.500000 1.000000 -0.500000
Au -1.000000 1.500000 -0.500000
Au -1.000000 1.000000 0.000000
Au -0.500000 1.500000 0.000000
Au -0.500000 1.000000 0.500000
Au -1.000000 1.500000 0.500000
Au -1.000000 1.000000 1.000000
Au -0.500000 1.500000 1.000000
Au -0.500000 1.000000 1.500000
Au -0.500000 2.000000 -0.500000
Au -1.000000 2.000000 0.000000
Au -0.500000 2.000000 0.500000
Au 0.000000 -1.500000 -1.500000
Au 0.000000 -2.000000 -1.000000
Au 0.500000 -1.500000 -1.000000
Au 0.500000 -2.000000 -0.500000
Au 0.000000 -1.500000 -0.500000
Au 0.000000 -2.000000 0.000000
Au 0.500000 -1.500000 0.000000
Au 0.500000 -2.000000 0.500000
Au 0.000000 -1.500000 0.500000
Au 0.000000 -2.000000 1.000000
Au 0.500000 -1.500000 1.000000
Au 0.000000 -1.500000 1.500000
Au 0.000000 -1.000000 -2.000000
Au 0.500000 -0.500000 -2.000000
Au 0.500000 -1.000000 -1.500000
Au 0.000000 -0.500000 -1.500000
Au 0.000000 -1.000000 -1.000000
Au 0.500000 -0.500000 -1.000000
Au 0.500000 -1.000000 -0.500000
Au 0.000000 -0.500000 -0.500000
Au 0.000000 -1.000000 0.000000
Au 0.500000 -0.500000 0.000000
Au 0.500000 -1.000000 0.500000
Au 0.000000 -0.500000 0.500000
Au 0.000000 -1.000000 1.000000
Au 0.500000 -0.500000 1.000000
Au 0.500000 -1.000000 1.500000
Au 0.000000 -0.500000 1.500000
Au 0.000000 -1.000000 2.000000
Au 0.500000 -0.500000 2.000000
Au 0.000000 0.000000 -2.000000
Au 0.500000 0.500000 -2.000000
Au 0.500000 0.000000 -1.500000
Au 0.000000 0.500000 -1.500000
Au 0.000000 0.000000 -1.000000
Au 0.500000 0.500000 -1.000000
Au 0.500000 0.000000 -0.500000
Au 0.000000 0.500000 -0.500000
V 0.000000 0.000000 0.000000
Au 0.500000 0.500000 0.000000
Au 0.500000 0.000000 0.500000
Au 0.000000 0.500000 0.500000
Au 0.000000 0.000000 1.000000
Au 0.500000 0.500000 1.000000
Au 0.500000 0.000000 1.500000
Au 0.000000 0.500000 1.500000
Au 0.000000 0.000000 2.000000
Au 0.500000 0.500000 2.000000
Au 0.000000 1.000000 -2.000000
Au 0.500000 1.000000 -1.500000
Au 0.000000 1.500000 -1.500000
Au 0.000000 1.000000 -1.000000
Au 0.500000 1.500000 -1.000000
Au 0.500000 1.000000 -0.500000
Au 0.000000 1.500000 -0.500000
Au 0.000000 1.000000 0.000000
Au 0.500000 1.500000 0.000000
Au 0.500000 1.000000 0.500000
Au 0.000000 1.500000 0.500000
Au 0.000000 1.000000 1.000000
Au 0.500000 1.500000 1.000000
Au 0.500000 1.000000 1.500000
Au 0.000000 1.500000 1.500000
Au 0.000000 1.000000 2.000000
Au 0.000000 2.000000 -1.000000
Au 0.500000 2.000000 -0.500000
Au 0.000000 2.000000 0.000000
Au 0.500000 2.000000 0.500000
Au 0.000000 2.000000 1.000000
Au 1.000000 -1.500000 -0.500000
Au 1.000000 -2.000000 0.000000
Au 1.500000 -1.500000 0.000000
Au 1.000000 -1.500000 0.500000
Au 1.000000 -0.500000 -1.500000
Au 1.000000 -1.000000 -1.000000
Au 1.500000 -0.500000 -1.000000
Au 1.500000 -1.000000 -0.500000
Au 1.000000 -0.500000 -0.500000
Au 1.000000 -1.000000 0.000000
Au 1.500000 -0.500000 0.000000
Au 1.500000 -1.000000 0.500000
Au 1.000000 -0.500000 0.500000
Au 1.000000 -1.000000 1.000000
Au 1.500000 -0.500000 1.000000
Au 1.000000 -0.500000 1.500000
Au 1.000000 0.000000 -2.000000
Au 1.500000 0.000000 -1.500000
Au 1.000000 0.500000 -1.500000
Au 1.000000 0.000000 -1.000000
Au 1.500000 0.500000 -1.000000
Au 1.500000 0.000000 -0.500000
Au 1.000000 0.500000 -0.500000
Au 1.000000 0.000000 0.000000
Au 1.500000 0.500000 0.000000
Au 1.500000 0.000000 0.500000
Au 1.000000 0.500000 0.500000
Au 1.000000 0.000000 1.000000
Au 1.500000 0.500000 1.000000
Au 1.500000 0.000000 1.500000
Au 1.000000 0.500000 1.500000
Au 1.000000 0.000000 2.000000
Au 1.000000 1.000000 -1.000000
Au 1.500000 1.000000 -0.500000
Au 1.000000 1.500000 -0.500000
Au 1.000000 1.000000 0.000000
Au 1.500000 1.500000 0.000000
Au 1.500000 1.000000 0.500000
Au 1.000000 1.500000 0.500000
Au 1.000000 1.000000 1.000000
Au 1.000000 2.000000 0.000000
Au 2.000000 -0.500000 -0.500000
Au 2.000000 -1.000000 0.000000
Au 2.000000 -0.500000 0.500000
Au 2.000000 0.000000 -1.000000
Au 2.000000 0.500000 -0.500000
Au 2.000000 0.000000 0.000000
Au 2.000000 0.500000 0.500000
Au 2.000000 0.000000 1.000000
Au 2.000000 1.000000 0.000000
S -2.600000 0.650000 0.000000
CH2 -3.200000 0.800000 0.000000
CH2 -3.800000 0.950000 0.000000
CH2 -4.400000 1.100000 0.000000
CH2 -5.000000 1.250000 0.000000
CH2 -5.600000 1.400000 0.000000
CH2 -6.200000 1.550000 0.000000
CH2 -6.800000 1.700000 0.000000
CH2 -7.400000 1.850000 0.000000
CH2 -8.000000 2.000000 0.000000
CH2 -8.600000 2.150000 0.000000
CH2 -9.200000 2.300000 0.000000
CH3 -9.800000 2.450000 0.000000
S -2.600000 -0.650000 0.000000
CH2 -3.200000 -0.800000 0.000000
CH2 -3.800000 -0.950000 0.000000
CH2 -4.400000 -1.100000 0.000000
CH2 -5.000000 -1.250000 0.000000
CH2 -5.600000 -1.400000 0.000000
CH2 -6.200000 -1.550000 0.000000
CH2 -6.800000 -1.700000 0.000000
CH2 -7.400000 -1.850000 0.000000
CH2 -8.000000 -2.000000 0.000000
CH2 -8.600000 -2.150000 0.000000
CH2 -9.200000 -2.300000 0.000000
CH3 -9.800000 -2.450000 0.000000
S -2.600000 0.000000 0.650000
CH2 -3.200000 0.000000 0.800000
CH2 -3.800000 0.000000 0.950000
CH2 -4.400000 0.000000 1.100000
CH2 -5.000000 0.000000 1.250000
CH2 -5.600000 0.000000 1.400000
CH2 -6.200000 0.000000 1.550000
CH2 -6.800000 0.000000 1.700000
CH2 -7.400000 0.000000 1.850000
CH2 -8.000000 0.000000 2.000000
CH2 -8.600000 0.000000 2.150000
CH2 -9.200000 0.000000 2.300000
CH3 -9.800000 0.000000 2.450000
S -2.600000 0.000000 -0.650000
CH2 -3.200000 0.000000 -0.800000
CH2 -3.800000 0.000000 -0.950000
CH2 -4.400000 0.000000 -1.100000
CH2 -5.000000 0.000000 -1.250000
CH2 -5.600000 0.000000 -1.400000
CH2 -6.200000 0.000000 -1.550000
CH2 -6.800000 0.000000 -1.700000
CH2 -7.400000 0.000000 -1.850000
CH2 -8.000000 0.000000 -2.000000
CH2 -8.600000 0.000000 -2.150000
CH2 -9.200000 0.000000 -2.300000
CH3 -9.800000 0.000000 -2.450000
S 0.650000 -2.600000 0.000000
CH2 0.800000 -3.200000 0.000000
CH2 0.950000 -3.800000 0.000000
CH2 1.100000 -4.400000 0.000000
CH2 1.250000 -5.000000 0.000000
CH2 1.400000 -5.600000 0.000000
CH2 1.550000 -6.200000 0.000000
CH2 1.700000 -6.800000 0.000000
CH2 1.850000 -7.400000 0.000000
CH2 2.000000 -8.000000 0.000000
CH2 2.150000 -8.600000 0.000000
CH2 2.300000 -9.200000 0.000000
CH3 2.450000 -9.800000 0.000000
S -0.650000 -2.600000 0.000000
CH2 -0.800000 -3.200000 0.000000
CH2 -0.950000 -3.800000 0.000000
CH2 -1.100000 -4.400000 0.000000
CH2 -1.250000 -5.000000 0.000000
CH2 -1.400000 -5.600000 0.000000
CH2 -1.550000 -6.200000 0.000000
CH2 -1.700000 -6.800000 0.000000
CH2 -1.850000 -7.400000 0.000000
CH2 -2.000000 -8.000000 0.000000
CH2 -2.150000 -8.600000 0.000000
CH2 -2.300000 -9.200000 0.000000
CH3 -2.450000 -9.800000 0.000000
S 0.000000 -2.600000 0.650000
CH2 0.000000 -3.200000 0.800000
CH2 0.000000 -3.800000 0.950000
CH2 0.000000 -4.400000 1.100000
CH2 0.000000 -5.000000 1.250000
CH2 0.000000 -5.600000 1.400000
CH2 0.000000 -6.200000 1.550000
CH2 0.000000 -6.800000 1.700000
CH2 0.000000 -7.400000 1.850000
CH2 0.000000 -8.000000 2.000000
CH2 0.000000 -8.600000 2.150000
CH2 0.000000 -9.200000 2.300000
CH3 0.000000 -9.800000 2.450000
S 0.000000 -2.600000 -0.650000
CH2 0.000000 -3.200000 -0.800000
CH2 0.000000 -3.800000 -0.950000
CH2 0.000000 -4.400000 -1.100000
CH2 0.000000 -5.000000 -1.250000
CH2 0.000000 -5.600000 -1.400000
CH2 0.000000 -6.200000 -1.550000
CH2 0.000000 -6.800000 -1.700000
CH2 0.000000 -7.400000 -1.850000
CH2 0.000000 -8.000000 -2.000000
CH2 0.000000 -8.600000 -2.150000
CH2 0.000000 -9.200000 -2.300000
CH3 0.000000 -9.800000 -2.450000
S 0.650000 0.000000 -2.600000
CH2 0.800000 0.000000 -3.200000
CH2 0.950000 0.000000 -3.800000
CH2 1.100000 0.000000 -4.400000
CH2 1.250000 0.000000 -5.000000
CH2 1.400000 0.000000 -5.600000
CH2 1.550000 0.000000 -6.200000
CH2 1.700000 0.000000 -6.800000
CH2 1.850000 0.000000 -7.400000
CH2 2.000000 0.000000 -8.000000
CH2 2.150000 0.000000 -8.600000
CH2 2.300000 0.000000 -9.200000
CH3 2.450000 0.000000 -9.800000
S -0.650000 0.000000 -2.600000
CH2 -0.800000 0.000000 -3.200000
CH2 -0.950000 0.000000 -3.800000
CH2 -1.100000 0.000000 -4.400000
CH2 -1.250000 0.000000 -5.000000
CH2 -1.400000 0.000000 -5.600000
CH2 -1.550000 0.000000 -6.200000
CH2 -1.700000 0.000000 -6.800000
CH2 -1.850000 0.000000 -7.400000
CH2 -2.000000 0.000000 -8.000000
CH2 -2.150000 0.000000 -8.600000
CH2 -2.300000 0.000000 -9.200000
CH3 -2.450000 0.000000 -9.800000
S 0.000000 0.650000 -2.600000
CH2 0.000000 0.800000 -3.200000
CH2 0.000000 0.950000 -3.800000
CH2 0.000000 1.100000 -4.400000
CH2 0.000000 1.250000 -5.000000
CH2 0.000000 1.400000 -5.600000
CH2 0.000000 1.550000 -6.200000
CH2 0.000000 1.700000 -6.800000
CH2 0.000000 1.850000 -7.400000
CH2 0.000000 2.000000 -8.000000
CH2 0.000000 2.150000 -8.600000
CH2 0.000000 2.300000 -9.200000
CH3 0.000000 2.450000 -9.800000
S 0.000000 -0.650000 -2.600000
CH2 0.000000 -0.800000 -3.200000
CH2 0.000000 -0.950000 -3.800000
CH2 0.000000 -1.100000 -4.400000
CH2 0.000000 -1.250000 -5.000000
CH2 0.000000 -1.400000 -5.600000
CH2 0.000000 -1.550000 -6.200000
CH2 0.000000 -1.700000 -6.800000
CH2 0.000000 -1.850000 -7.400000
CH2 0.000000 -2.000000 -8.000000
CH2 0.000000 -2.150000 -8.600000
CH2 0.000000 -2.300000 -9.200000
CH3 0.000000 -2.450000 -9.800000
S 0.650000 0.000000 2.600000
CH2 0.800000 0.000000 3.200000
CH2 0.950000 0.000000 3.800000
CH2 1.100000 0.000000 4.400000
CH2 1.250000 0.000000 5.000000
CH2 1.400000 0.000000 5.600000
CH2 1.550000 0.000000 6.200000
CH2 1.700000 0.000000 6.800000
CH2 1.850000 0.000000 7.400000
CH2 2.000000 0.000000 8.000000
CH2 2.150000 0.000000 8.600000
CH2 2.300000 0.000000 9.200000
CH3 2.450000 0.000000 9.800000
S -0.650000 0.000000 2.600000
CH2 -0.800000 0.000000 3.200000
CH2 -0.950000 0.000000 3.800000
CH2 -1.100000 0.000000 4.400000
CH2 -1.250000 0.000000 5.000000
CH2 -1.400000 0.000000 5.600000
CH2 -1.550000 0.000000 6.200000
CH2 -1.700000 0.000000 6.800000
CH2 -1.850000 0.000000 7.400000
CH2 -2.000000 0.000000 8.000000
CH2 -2.150000 0.000000 8.600000
CH2 -2.300000 0.000000 9.200000
CH3 -2.450000 0.000000 9.800000
S 0.000000 0.650000 2.600000
CH2 0.000000 0.800000 3.200000
CH2 0.000000 0.950000 3.800000
CH2 0.000000 1.100000 4.400000
CH2 0.000000 1.250000 5.000000
CH2 0.000000 1.400000 5.600000
CH2 0.000000 1.550000 6.200000
CH2 0.000000 1.700000 6.800000
CH2 0.000000 1.850000 7.400000
CH2 0.000000 2.000000 8.000000
CH2 0.000000 2.150000 8.600000
CH2 0.000000 2.300000 9.200000
CH3 0.000000 2.450000 9.800000
S 0.000000 -0.650000 2.600000
CH2 0.000000 -0.800000 3.200000
CH2 0.000000 -0.950000 3.800000
CH2 0.000000 -1.100000 4.400000
CH2 0.000000 -1.250000 5.000000
CH2 0.000000 -1.400000 5.600000
CH2 0.000000 -1.550000 6.200000
CH2 0.000000 -1.700000 6.800000
CH2 0.000000 -1.850000 7.400000
CH2 0.000000 -2.000000 8.000000
CH2 0.000000 -2.150000 8.600000
CH2 0.000000 -2.300000 9.200000
CH3 0.000000 -2.450000 9.800000
S 0.650000 2.600000 0.000000
CH2 0.800000 3.200000 0.000000
CH2 0.950000 3.800000 0.000000
CH2 1.100000 4.400000 0.000000
CH2 1.250000 5.000000 0.000000
CH2 1.400000 5.600000 0.000000
CH2 1.550000 6.200000 0.000000
CH2 1.700000 6.800000 0.000000
CH2 1.850000 7.400000 0.000000
CH2 2.000000 8.000000 0.000000
CH2 2.150000 8.600000 0.000000
CH2 2.300000 9.200000 0.000000
CH3 2.450000 9.800000 0.000000
S -0.650000 2.600000 0.000000
CH2 -0.800000 3.200000 0.000000
CH2 -0.950000 3.800000 0.000000
CH2 -1.100000 4.400000 0.000000
CH2 -1.250000 5.000000 0.000000
CH2 -1.400000 5.600000 0.000000
CH2 -1.550000 6.200000 0.000000
CH2 -1.700000 6.800000 0.000000
CH2 -1.850000 7.400000 0.000000
CH2 -2.000000 8.000000 0.000000
CH2 -2.150000 8.600000 0.000000
CH2 -2.300000 9.200000 0.000000
CH3 -2.450000 9.800000 0.000000
S 0.000000 2.600000 0.650000
CH2 0.000000 3.200000 0.800000
CH2 0.000000 3.800000 0.950000
CH2 0.000000 4.400000 1.100000
CH2 0.000000 5.000000 1.250000
CH2 0.000000 5.600000 1.400000
CH2 0.000000 6.200000 1.550000
CH2 0.000000 6.800000 1.700000
CH2 0.000000 7.400000 1.850000
CH2 0.000000 8.000000 2.000000
CH2 0.000000 8.600000 2.150000
CH2 0.000000 9.200000 2.300000
CH3 0.000000 9.800000 2.450000
S 0.000000 2.600000 -0.650000
CH2 0.000000 3.200000 -0.800000
CH2 0.000000 3.800000 -0.950000
CH2 0.000000 4.400000 -1.100000
CH2 0.000000 5.000000 -1.250000
CH2 0.000000 5.600000 -1.400000
CH2 0.000000 6.200000 -1.550000
CH2 0.000000 6.800000 -1.700000
CH2 0.000000 7.400000 -1.850000
CH2 0.000000 8.000000 -2.000000
CH2 0.000000 8.600000 -2.150000
CH2 0.000000 9.200000 -2.300000
CH3 0.000000 9.800000 -2.450000
S 2.600000 0.650000 0.000000
CH2 3.200000 0.800000 0.000000
CH2 3.800000 0.950000 0.000000
CH2 4.400000 1.100000 0.000000
CH2 5.000000 1.250000 0.000000
CH2 5.600000 1.400000 0.000000
CH2 6.200000 1.550000 0.000000
CH2 6.800000 1.700000 0.000000
CH2 7.400000 1.850000 0.000000
CH2 8.000000 2.000000 0.000000
CH2 8.600000 2.150000 0.000000
CH2 9.200000 2.300000 0.000000
CH3 9.800000 2.450000 0.000000
S 2.600000 -0.650000 0.000000
CH2 3.200000 -0.800000 0.000000
CH2 3.800000 -0.950000 0.000000
CH2 4.400000 -1.100000 0.000000
CH2 5.000000 -1.250000 0.000000
CH2 5.600000 -1.400000 0.000000
CH2 6.200000 -1.550000 0.000000
CH2 6.800000 -1.700000 0.000000
CH2 7.400000 -1.850000 0.000000
CH2 8.000000 -2.000000 0.000000
CH2 8.600000 -2.150000 0.000000
CH2 9.200000 -2.300000 0.000000
CH3 9.800000 -2.450000 0.000000
S 2.600000 0.000000 0.650000
CH2 3.200000 0.000000 0.800000
CH2 3.800000 0.000000 0.950000
CH2 4.400000 0.000000 1.100000
CH2 5.000000 0.000000 1.250000
CH2 5.600000 0.000000 1.400000
CH2 6.200000 0.000000 1.550000
CH2 6.800000 0.000000 1.700000
CH2 7.400000 0.000000 1.850000
CH2 8.000000 0.000000 2.000000
CH2 8.600000 0.000000 2.150000
CH2 9.200000 0.000000 2.300000
CH3 9.800000 0.000000 2.450000
S 2.600000 0.000000 -0.650000
CH2 3.200000 0.000000 -0.800000
CH2 3.800000 0.000000 -0.950000
CH2 4.400000 0.000000 -1.100000
CH2 5.000000 0.000000 -1.250000
CH2 5.600000 0.000000 -1.400000
CH2 6.200000 0.000000 -1.550000
CH2 6.800000 0.000000 -1.700000
CH2 7.400000 0.000000 -1.850000
CH2 8.000000 0.000000 -2.000000
CH2 8.600000 0.000000 -2.150000
CH2 9.200000 0.000000 -2.300000
CH3 9.800000 0.000000 -2.450000
S -1.950000 -0.650000 -1.300000
CH2 -2.400000 -0.800000 -1.600000
CH2 -2.850000 -0.950000 -1.900000
CH2 -3.300000 -1.100000 -2.200000
CH2 -3.750000 -1.250000 -2.500000
CH2 -4.200000 -1.400000 -2.800000
CH2 -4.650000 -1.550000 -3.100000
CH2 -5.100000 -1.700000 -3.400000
CH2 -5.550000 -1.850000 -3.700000
CH2 -6.000000 -2.000000 -4.000000
CH2 -6.450000 -2.150000 -4.300000
CH2 -6.900000 -2.300000 -4.600000
CH3 -7.350000 -2.450000 -4.900000
S -1.950000 -1.300000 -0.650000
CH2 -2.400000 -1.600000 -0.800000
CH2 -2.850000 -1.900000 -0.950000
CH2 -3.300000 -2.200000 -1.100000
CH2 -3.750000 -2.500000 -1.250000
CH2 -4.200000 -2.800000 -1.400000
CH2 -4.650000 -3.100000 -1.550000
CH2 -5.100000 -3.400000 -1.700000
CH2 -5.550000 -3.700000 -1.850000
CH2 -6.000000 -4.000000 -2.000000
CH2 -6.450000 -4.300000 -2.150000
CH2 -6.900000 -4.600000 -2.300000
CH3 -7.350000 -4.900000 -2.450000
S -1.950000 -1.300000 0.650000
CH2 -2.400000 -1.600000 0.800000
CH2 -2.850000 -1.900000 0.950000
CH2 -3.300000 -2.200000 1.100000
CH2 -3.750000 -2.500000 1.250000
CH2 -4.200000 -2.800000 1.400000
CH2 -4.650000 -3.100000 1.550000
CH2 -5.100000 -3.400000 1.700000
CH2 -5.550000 -3.700000 1.850000
CH2 -6.000000 -4.000000 2.000000
CH2 -6.450000 -4.300000 2.150000
CH2 -6.900000 -4.600000 2.300000
CH3 -7.350000 -4.900000 2.450000
S -1.950000 -0.650000 1.300000
CH2 -2.400000 -0.800000 1.600000
CH2 -2.850000 -0.950000 1.900000
CH2 -3.300000 -1.100000 2.200000
CH2 -3.750000 -1.250000 2.500000
CH2 -4.200000 -1.400000 2.800000
CH2 -4.650000 -1.550000 3.100000
CH2 -5.100000 -1.700000 3.400000
CH2 -5.550000 -1.850000 3.700000
CH2 -6.000000 -2.000000 4.000000
CH2 -6.450000 -2.150000 4.300000
CH2 -6.900000 -2.300000 4.600000
CH3 -7.350000 -2.450000 4.900000
S -1.950000 0.650000 -1.300000
CH2 -2.400000 0.800000 -1.600000
CH2 -2.850000 0.950000 -1.900000
CH2 -3.300000 1.100000 -2.200000
CH2 -3.750000 1.250000 -2.500000
CH2 -4.200000 1.400000 -2.800000
CH2 -4.650000 1.550000 -3.100000
CH2 -5.100000 1.700000 -3.400000
CH2 -5.550000 1.850000 -3.700000
CH2 -6.000000 2.000000 -4.000000
CH2 -6.450000 2.150000 -4.300000
CH2 -6.900000 2.300000 -4.600000
CH3 -7.350000 2.450000 -4.900000
S -1.950000 0.650000 1.300000
CH2 -2.400000 0.800000 1.600000
CH2 -2.850000 0.950000 1.900000
CH2 -3.300000 1.100000 2.200000
CH2 -3.750000 1.250000 2.500000
CH2 -4.200000 1.400000 2.800000
CH2 -4.650000 1.550000 3.100000
CH2 -5.100000 1.700000 3.400000
CH2 -5.550000 1.850000 3.700000
CH2 -6.000000 2.000000 4.000000
CH2 -6.450000 2.150000 4.300000
CH2 -6.900000 2.300000 4.600000
CH3 -7.350000 2.450000 4.900000
S -1.950000 1.300000 -0.650000
CH2 -2.400000 1.600000 -0.800000
CH2 -2.850000 1.900000 -0.950000
CH2 -3.300000 2.200000 -1.100000
CH2 -3.750000 2.500000 -1.250000
CH2 -4.200000 2.800000 -1.400000
CH2 -4.650000 3.100000 -1.550000
CH2 -5.100000 3.400000 -1.700000
CH2 -5.550000 3.700000 -1.850000
CH2 -6.000000 4.000000 -2.000000
CH2 -6.450000 4.300000 -2.150000
CH2 -6.900000 4.600000 -2.300000
CH3 -7.350000 4.900000 -2.450000
S -1.950000 1.300000 0.650000
CH2 -2.400000 1.600000 0.800000
CH2 -2.850000 1.900000 0.950000
CH2 -3.300000 2.200000 1.100000
CH2 -3.750000 2.500000 1.250000
CH2 -4.200000 2.800000 1.400000
CH2 -4.650000 3.100000 1.550000
CH2 -5.100000 3.400000 1.700000
CH2 -5.550000 3.700000 1.850000
CH2 -6.000000 4.000000 2.000000
CH2 -6.450000 4.300000 2.150000
CH2 -6.900000 4.600000 2.300000
CH3 -7.350000 4.900000 2.450000
S -0.650000 -1.950000 -1.300000
CH2 -0.800000 -2.400000 -1.600000
CH2 -0.950000 -2.850000 -1.900000
CH2 -1.100000 -3.300000 -2.200000
CH2 -1.250000 -3.750000 -2.500000
CH2 -1.400000 -4.200000 -2.800000
CH2 -1.550000 -4.650000 -3.100000
CH2 -1.700000 -5.100000 -3.400000
CH2 -1.850000 -5.550000 -3.700000
CH2 -2.000000 -6.000000 -4.000000
CH2 -2.150000 -6.450000 -4.300000
CH2 -2.300000 -6.900000 -4.600000
CH3 -2.450000 -7.350000 -4.900000
S -1.300000 -1.950000 -0.650000
CH2 -1.600000 -2.400000 -0.800000
CH2 -1.900000 -2.850000 -0.950000
CH2 -2.200000 -3.300000 -1.100000
CH2 -2.500000 -3.750000 -1.250000
CH2 -2.800000 -4.200000 -1.400000
CH2 -3.100000 -4.650000 -1.550000
CH2 -3.400000 -5.100000 -1.700000
CH2 -3.700000 -5.550000 -1.850000
CH2 -4.000000 -6.000000 -2.000000
CH2 -4.300000 -6.450000 -2.150000
CH2 -4.600000 -6.900000 -2.300000
CH3 -4.900000 -7.350000 -2.450000
S -1.300000 -1.950000 0.650000
CH2 -1.600000 -2.400000 0.800000
CH2 -1.900000 -2.850000 0.950000
CH2 -2.200000 -3.300000 1.100000
CH2 -2.500000 -3.750000 1.250000
CH2 -2.800000 -4.200000 1.400000
CH2 -3.100000 -4.650000 1.550000
CH2 -3.400000 -5.100000 1.700000
CH2 -3.700000 -5.550000 1.850000
CH2 -4.000000 -6.000000 2.000000
CH2 -4.300000 -6.450000 2.150000
CH2 -4.600000 -6.900000 2.300000
CH3 -4.900000 -7.350000 2.450000
S -0.650000 -1.950000 1.300000
CH2 -0.800000 -2.400000 1.600000
CH2 -0.950000 -2.850000 1.900000
CH2 -1.100000 -3.300000 2.200000
CH2 -1.250000 -3.750000 2.500000
CH2 -1.400000 -4.200000 2.800000
CH2 -1.550000 -4.650000 3.100000
CH2 -1.700000 -5.100000 3.400000
CH2 -1.850000 -5.550000 3.700000
CH2 -2.000000 -6.000000 4.000000
CH2 -2.150000 -6.450000 4.300000
CH2 -2.300000 -6.900000 4.600000
CH3 -2.450000 -7.350000 4.900000
S -0.650000 -1.300000 -1.950000
CH2 -0.800000 -1.600000 -2.400000
CH2 -0.950000 -1.900000 -2.850000
CH2 -1.100000 -2.200000 -3.300000
CH2 -1.250000 -2.500000 -3.750000
CH2 -1.400000 -2.800000 -4.200000
CH2 -1.550000 -3.100000 -4.650000
CH2 -1.700000 -3.400000 -5.100000
CH2 -1.850000 -3.700000 -5.550000
CH2 -2.000000 -4.000000 -6.000000
CH2 -2.150000 -4.300000 -6.450000
CH2 -2.300000 -4.600000 -6.900000
CH3 -2.450000 -4.900000 -7.350000
S -1.300000 -0.650000 -1.950000
CH2 -1.600000 -0.800000 -2.400000
CH2 -1.900000 -0.950000 -2.850000
CH2 -2.200000 -1.100000 -3.300000
CH2 -2.500000 -1.250000 -3.750000
CH2 -2.800000 -1.400000 -4.200000
CH2 -3.100000 -1.550000 -4.650000
CH2 -3.400000 -1.700000 -5.100000
CH2 -3.700000 -1.850000 -5.550000
CH2 -4.000000 -2.000000 -6.000000
CH2 -4.300000 -2.150000 -6.450000
CH2 -4.600000 -2.300000 -6.900000
CH3 -4.900000 -2.450000 -7.350000
S -1.300000 -1.300000 -1.300000
CH2 -1.600000 -1.600000 -1.600000
CH2 -1.900000 -1.900000 -1.900000
CH2 -2.200000 -2.200000 -2.200000
CH2 -2.500000 -2.500000 -2.500000
CH2 -2.800000 -2.800000 -2.800000
CH2 -3.100000 -3.100000 -3.100000
CH2 -3.400000 -3.400000 -3.400000
CH2 -3.700000 -3.700000 -3.700000
CH2 -4.000000 -4.000000 -4.000000
CH2 -4.300000 -4.300000 -4.300000
CH2 -4.600000 -4.600000 -4.600000
CH3 -4.900000 -4.900000 -4.900000
S -1.300000 -1.300000 1.300000
CH2 -1.600000 -1.600000 1.600000
CH2 -1.900000 -1.900000 1.900000
CH2 -2.200000 -2.200000 2.200000
CH2 -2.500000 -2.500000 2.500000
CH2 -2.800000 -2.800000 2.800000
CH2 -3.100000 -3.100000 3.100000
CH2 -3.400000 -3.400000 3.400000
CH2 -3.700000 -3.700000 3.700000
CH2 -4.000000 -4.000000 4.000000
CH2 -4.300000 -4.300000 4.300000
CH2 -4.600000 -4.600000 4.600000
CH3 -4.900000 -4.900000 4.900000
S -0.650000 -1.300000 1.950000
CH2 -0.800000 -1.600000 2.400000
CH2 -0.950000 -1.900000 2.850000
CH2 -1.100000 -2.200000 3.300000
CH2 -1.250000 -2.500000 3.750000
CH2 -1.400000 -2.800000 4.200000
CH2 -1.550000 -3.100000 4.650000
CH2 -1.700000 -3.400000 5.100000
CH2 -1.850000 -3.700000 5.550000
CH2 -2.000000 -4.000000 6.000000
CH2 -2.150000 -4.300000 6.450000
CH2 -2.300000 -4.600000 6.900000
CH3 -2.450000 -4.900000 7.350000
S -1.300000 -0.650000 1.950000
CH2 -1.600000 -0.800000 2.400000
CH2 -1.900000 -0.950000 2.850000
CH2 -2.200000 -1.100000 3.300000
CH2 -2.500000 -1.250000 3.750000
CH2 -2.800000 -1.400000 4.200000
CH2 -3.100000 -1.550000 4.650000
CH2 -3.400000 -1.700000 5.100000
CH2 -3.700000 -1.850000 5.550000
CH2 -4.000000 -2.000000 6.000000
CH2 -4.300000 -2.150000 6.450000
CH2 -4.600000 -2.300000 6.900000
CH3 -4.900000 -2.450000 7.350000
S -1.300000 0.650000 -1.950000
CH2 -1.600000 0.800000 -2.400000
CH2 -1.900000 0.950000 -2.850000
CH2 -2.200000 1.100000 -3.300000
CH2 -2.500000 1.250000 -3.750000
CH2 -2.800000 1.400000 -4.200000
CH2 -3.100000 1.550000 -4.650000
CH2 -3.400000 1.700000 -5.100000
CH2 -3.700000 1.850000 -5.550000
CH2 -4.000000 2.000000 -6.000000
CH2 -4.300000 2.150000 -6.450000
CH2 -4.600000 2.300000 -6.900000
CH3 -4.900000 2.450000 -7.350000
S -1.300000 0.650000 1.950000
CH2 -1.600000 0.800000 2.400000
CH2 -1.900000 0.950000 2.850000
CH2 -2.200000 1.100000 3.300000
CH2 -2.500000 1.250000 3.750000
CH2 -2.800000 1.400000 4.200000
CH2 -3.100000 1.550000 4.650000
CH2 -3.400000 1.700000 5.100000
CH2 -3.700000 1.850000 5.550000
CH2 -4.000000 2.000000 6.000000
CH2 -4.300000 2.150000 6.450000
CH2 -4.600000 2.300000 6.900000
CH3 -4.900000 2.450000 7.350000
S -0.650000 1.300000 -1.950000
CH2 -0.800000 1.600000 -2.400000
CH2 -0.950000 1.900000 -2.850000
CH2 -1.100000 2.200000 -3.300000
CH2 -1.250000 2.500000 -3.750000
CH2 -1.400000 2.800000 -4.200000
CH2 -1.550000 3.100000 -4.650000
CH2 -1.700000 3.400000 -5.100000
CH2 -1.850000 3.700000 -5.550000
CH2 -2.000000 4.000000 -6.000000
CH2 -2.150000 4.300000 -6.450000
CH2 -2.300000 4.600000 -6.900000
CH3 -2.450000 4.900000 -7.350000
S -1.300000 1.300000 -1.300000
CH2 -1.600000 1.600000 -1.600000
CH2 -1.900000 1.900000 -1.900000
CH2 -2.200000 2.200000 -2.200000
CH2 -2.500000 2.500000 -2.500000
CH2 -2.800000 2.800000 -2.800000
CH2 -3.100000 3.100000 -3.100000
CH2 -3.400000 3.400000 -3.400000
CH2 -3.700000 3.700000 -3.700000
CH2 -4.000000 4.000000 -4.000000
CH2 -4.300000 4.300000 -4.300000
CH2 -4.600000 4.600000 -4.600000
CH3 -4.900000 4.900000 -4.900000
S -0.650000 1.950000 -1.300000
CH2 -0.800000 2.400000 -1.600000
CH2 -0.950000 2.850000 -1.900000
CH2 -1.100000 3.300000 -2.200000
CH2 -1.250000 3.750000 -2.500000
CH2 -1.400000 4.200000 -2.800000
CH2 -1.550000 4.650000 -3.100000
CH2 -1.700000 5.100000 -3.400000
CH2 -1.850000 5.550000 -3.700000
CH2 -2.000000 6.000000 -4.000000
CH2 -2.150000 6.450000 -4.300000
CH2 -2.300000 6.900000 -4.600000
CH3 -2.450000 7.350000 -4.900000
S -1.300000 1.950000 -0.650000
CH2 -1.600000 2.400000 -0.800000
CH2 -1.900000 2.850000 -0.950000
CH2 -2.200000 3.300000 -1.100000
CH2 -2.500000 3.750000 -1.250000
CH2 -2.800000 4.200000 -1.400000
CH2 -3.100000 4.650000 -1.550000
CH2 -3.400000 5.100000 -1.700000
CH2 -3.700000 5.550000 -1.850000
CH2 -4.000000 6.000000 -2.000000
CH2 -4.300000 6.450000 -2.150000
CH2 -4.600000 6.900000 -2.300000
CH3 -4.900000 7.350000 -2.450000
S -1.300000 1.950000 0.650000
CH2 -1.600000 2.400000 0.800000
CH2 -1.900000 2.850000 0.950000
CH2 -2.200000 3.300000 1.100000
CH2 -2.500000 3.750000 1.250000
CH2 -2.800000 4.200000 1.400000
CH2 -3.100000 4.650000 1.550000
CH2 -3.400000 5.100000 1.700000
CH2 -3.700000 5.550000 1.850000
CH2 -4.000000 6.000000 2.000000
CH2 -4.300000 6.450000 2.150000
CH2 -4.600000 6.900000 2.300000
CH3 -4.900000 7.350000 2.450000
S -1.300000 1.300000 1.300000
CH2 -1.600000 1.600000 1.600000
CH2 -1.900000 1.900000 1.900000
CH2 -2.200000 2.200000 2.200000
CH2 -2.500000 2.500000 2.500000
CH2 -2.800000 2.800000 2.800000
CH2 -3.100000 3.100000 3.100000
CH2 -3.400000 3.400000 3.400000
CH2 -3.700000 3.700000 3.700000
CH2 -4.000000 4.000000 4.000000
CH2 -4.300000 4.300000 4.300000
CH2 -4.600000 4.600000 4.600000
CH3 -4.900000 4.900000 4.900000
S -0.650000 1.950000 1.300000
CH2 -0.800000 2.400000 1.600000
CH2 -0.950000 2.850000 1.900000
CH2 -1.100000 3.300000 2.200000
CH2 -1.250000 3.750000 2.500000
CH2 -1.400000 4.200000 2.800000
CH2 -1.550000 4.650000 3.100000
CH2 -1.700000 5.100000 3.400000
CH2 -1.850000 5.550000 3.700000
CH2 -2.000000 6.000000 4.000000
CH2 -2.150000 6.450000 4.300000
CH2 -2.300000 6.900000 4.600000
CH3 -2.450000 7.350000 4.900000
S -0.650000 1.300000 1.950000
CH2 -0.800000 1.600000 2.400000
CH2 -0.950000 1.900000 2.850000
CH2 -1.100000 2.200000 3.300000
CH2 -1.250000 2.500000 3.750000
CH2 -1.400000 2.800000 4.200000
CH2 -1.550000 3.100000 4.650000
CH2 -1.700000 3.400000 5.100000
CH2 -1.850000 3.700000 5.550000
CH2 -2.000000 4.000000 6.000000
CH2 -2.150000 4.300000 6.450000
CH2 -2.300000 4.600000 6.900000
CH3 -2.450000 4.900000 7.350000
S 0.650000 -1.950000 -1.300000
CH2 0.800000 -2.400000 -1.600000
CH2 0.950000 -2.850000 -1.900000
CH2 1.100000 -3.300000 -2.200000
CH2 1.250000 -3.750000 -2.500000
CH2 1.400000 -4.200000 -2.800000
CH2 1.550000 -4.650000 -3.100000
CH2 1.700000 -5.100000 -3.400000
CH2 1.850000 -5.550000 -3.700000
CH2 2.000000 -6.000000 -4.000000
CH2 2.150000 -6.450000 -4.300000
CH2 2.300000 -6.900000 -4.600000
CH3 2.450000 -7.350000 -4.900000
S 0.650000 -1.950000 1.300000
CH2 0.800000 -2.400000 1.600000
CH2 0.950000 -2.850000 1.900000
CH2 1.100000 -3.300000 2.200000
CH2 1.250000 -3.750000 2.500000
CH2 1.400000 -4.200000 2.800000
CH2 1.550000 -4.650000 3.100000
CH2 1.700000 -5.100000 3.400000
CH2 1.850000 -5.550000 3.700000
CH2 2.000000 -6.000000 4.000000
CH2 2.150000 -6.450000 4.300000
CH2 2.300000 -6.900000 4.600000
CH3 2.450000 -7.350000 4.900000
S 0.650000 -1.300000 -1.950000
CH2 0.800000 -1.600000 -2.400000
CH2 0.950000 -1.900000 -2.850000
CH2 1.100000 -2.200000 -3.300000
CH2 1.250000 -2.500000 -3.750000
CH2 1.400000 -2.800000 -4.200000
CH2 1.550000 -3.100000 -4.650000
CH2 1.700000 -3.400000 -5.100000
CH2 1.850000 -3.700000 -5.550000
CH2 2.000000 -4.000000 -6.000000
CH2 2.150000 -4.300000 -6.450000
CH2 2.300000 -4.600000 -6.900000
CH3 2.450000 -4.900000 -7.350000
S 0.650000 -1.300000 1.950000
CH2 0.800000 -1.600000 2.400000
CH2 0.950000 -1.900000 2.850000
CH2 1.100000 -2.200000 3.300000
CH2 1.250000 -2.500000 3.750000
CH2 1.400000 -2.800000 4.200000
CH2 1.550000 -3.100000 4.650000
CH2 1.700000 -3.400000 5.100000
CH2 1.850000 -3.700000 5.550000
CH2 2.000000 -4.000000 6.000000
CH2 2.150000 -4.300000 6.450000
CH2 2.300000 -4.600000 6.900000
CH3 2.450000 -4.900000 7.350000
S 0.650000 1.300000 -1.950000
CH2 0.800000 1.600000 -2.400000
CH2 0.950000 1.900000 -2.850000
CH2 1.100000 2.200000 -3.300000
CH2 1.250000 2.500000 -3.750000
CH2 1.400000 2.800000 -4.200000
CH2 1.550000 3.100000 -4.650000
CH2 1.700000 3.400000 -5.100000
CH2 1.850000 3.700000 -5.550000
CH2 2.000000 4.000000 -6.000000
CH2 2.150000 4.300000 -6.450000
CH2 2.300000 4.600000 -6.900000
CH3 2.450000 4.900000 -7.350000
S 0.650000 1.950000 -1.300000
CH2 0.800000 2.400000 -1.600000
CH2 0.950000 2.850000 -1.900000
CH2 1.100000 3.300000 -2.200000
CH2 1.250000 3.750000 -2.500000
CH2 1.400000 4.200000 -2.800000
CH2 1.550000 4.650000 -3.100000
CH2 1.700000 5.100000 -3.400000
CH2 1.850000 5.550000 -3.700000
CH2 2.000000 6.000000 -4.000000
CH2 2.150000 6.450000 -4.300000
CH2 2.300000 6.900000 -4.600000
CH3 2.450000 7.350000 -4.900000
S 0.650000 1.950000 1.300000
CH2 0.800000 2.400000 1.600000
CH2 0.950000 2.850000 1.900000
CH2 1.100000 3.300000 2.200000
CH2 1.250000 3.750000 2.500000
CH2 1.400000 4.200000 2.800000
CH2 1.550000 4.650000 3.100000
CH2 1.700000 5.100000 3.400000
CH2 1.850000 5.550000 3.700000
CH2 2.000000 6.000000 4.000000
CH2 2.150000 6.450000 4.300000
CH2 2.300000 6.900000 4.600000
CH3 2.450000 7.350000 4.900000
S 0.650000 1.300000 1.950000
CH2 0.800000 1.600000 2.400000
CH2 0.950000 1.900000 2.850000
CH2 1.100000 2.200000 3.300000
CH2 1.250000 2.500000 3.750000
CH2 1.400000 2.800000 4.200000
CH2 1.550000 3.100000 4.650000
CH2 1.700000 3.400000 5.100000
CH2 1.850000 3.700000 5.550000
CH2 2.000000 4.000000 6.000000
CH2 2.150000 4.300000 6.450000
CH2 2.300000 4.600000 6.900000
CH3 2.450000 4.900000 7.350000
S 1.300000 -1.950000 -0.650000
CH2 1.600000 -2.400000 -0.800000
CH2 1.900000 -2.850000 -0.950000
CH2 2.200000 -3.300000 -1.100000
CH2 2.500000 -3.750000 -1.250000
CH2 2.800000 -4.200000 -1.400000
CH2 3.100000 -4.650000 -1.550000
CH2 3.400000 -5.100000 -1.700000
CH2 3.700000 -5.550000 -1.850000
CH2 4.000000 -6.000000 -2.000000
CH2 4.300000 -6.450000 -2.150000
CH2 4.600000 -6.900000 -2.300000
CH3 4.900000 -7.350000 -2.450000
S 1.300000 -1.950000 0.650000
CH2 1.600000 -2.400000 0.800000
CH2 1.900000 -2.850000 0.950000
CH2 2.200000 -3.300000 1.100000
CH2 2.500000 -3.750000 1.250000
CH2 2.800000 -4.200000 1.400000
CH2 3.100000 -4.650000 1.550000
CH2 3.400000 -5.100000 1.700000
CH2 3.700000 -5.550000 1.850000
CH2 4.000000 -6.000000 2.000000
CH2 4.300000 -6.450000 2.150000
CH2 4.600000 -6.900000 2.300000
CH3 4.900000 -7.350000 2.450000
S 1.300000 -0.650000 -1.950000
CH2 1.600000 -0.800000 -2.400000
CH2 1.900000 -0.950000 -2.850000
CH2 2.200000 -1.100000 -3.300000
CH2 2.500000 -1.250000 -3.750000
CH2 2.800000 -1.400000 -4.200000
CH2 3.100000 -1.550000 -4.650000
CH2 3.400000 -1.700000 -5.100000
CH2 3.700000 -1.850000 -5.550000
CH2 4.000000 -2.000000 -6.000000
CH2 4.300000 -2.150000 -6.450000
CH2 4.600000 -2.300000 -6.900000
CH3 4.900000 -2.450000 -7.350000
S 1.300000 -1.300000 -1.300000
CH2 1.600000 -1.600000 -1.600000
CH2 1.900000 -1.900000 -1.900000
CH2 2.200000 -2.200000 -2.200000
CH2 2.500000 -2.500000 -2.500000
CH2 2.800000 -2.800000 -2.800000
CH2 3.100000 -3.100000 -3.100000
CH2 3.400000 -3.400000 -3.400000
CH2 3.700000 -3.700000 -3.700000
CH2 4.000000 -4.000000 -4.000000
CH2 4.300000 -4.300000 -4.300000
CH2 4.600000 -4.600000 -4.600000
CH3 4.900000 -4.900000 -4.900000
S 1.950000 -0.650000 -1.300000
CH2 2.400000 -0.800000 -1.600000
CH2 2.850000 -0.950000 -1.900000
CH2 3.300000 -1.100000 -2.200000
CH2 3.750000 -1.250000 -2.500000
CH2 4.200000 -1.400000 -2.800000
CH2 4.650000 -1.550000 -3.100000
CH2 5.100000 -1.700000 -3.400000
CH2 5.550000 -1.850000 -3.700000
CH2 6.000000 -2.000000 -4.000000
CH2 6.450000 -2.150000 -4.300000
CH2 6.900000 -2.300000 -4.600000
CH3 7.350000 -2.450000 -4.900000
S 1.950000 -1.300000 -0.650000
CH2 2.400000 -1.600000 -0.800000
CH2 2.850000 -1.900000 -0.950000
CH2 3.300000 -2.200000 -1.100000
CH2 3.750000 -2.500000 -1.250000
CH2 4.200000 -2.800000 -1.400000
CH2 4.650000 -3.100000 -1.550000
CH2 5.100000 -3.400000 -1.700000
CH2 5.550000 -3.700000 -1.850000
CH2 6.000000 -4.000000 -2.000000
CH2 6.450000 -4.300000 -2.150000
CH2 6.900000 -4.600000 -2.300000
CH3 7.350000 -4.900000 -2.450000
S 1.950000 -1.300000 0.650000
CH2 2.400000 -1.600000 0.800000
CH2 2.850000 -1.900000 0.950000
CH2 3.300000 -2.200000 1.100000
CH2 3.750000 -2.500000 1.250000
CH2 4.200000 -2.800000 1.400000
CH2 4.650000 -3.100000 1.550000
CH2 5.100000 -3.400000 1.700000
CH2 5.550000 -3.700000 1.850000
CH2 6.000000 -4.000000 2.000000
CH2 6.450000 -4.300000 2.150000
CH2 6.900000 -4.600000 2.300000
CH3 7.350000 -4.900000 2.450000
S 1.300000 -1.300000 1.300000
CH2 1.600000 -1.600000 1.600000
CH2 1.900000 -1.900000 1.900000
CH2 2.200000 -2.200000 2.200000
CH2 2.500000 -2.500000 2.500000
CH2 2.800000 -2.800000 2.800000
CH2 3.100000 -3.100000 3.100000
CH2 3.400000 -3.400000 3.400000
CH2 3.700000 -3.700000 3.700000
CH2 4.000000 -4.000000 4.000000
CH2 4.300000 -4.300000 4.300000
CH2 4.600000 -4.600000 4.600000
CH3 4.900000 -4.900000 4.900000
S 1.950000 -0.650000 1.300000
CH2 2.400000 -0.800000 1.600000
CH2 2.850000 -0.950000 1.900000
CH2 3.300000 -1.100000 2.200000
CH2 3.750000 -1.250000 2.500000
CH2 4.200000 -1.400000 2.800000
CH2 4.650000 -1.550000 3.100000
CH2 5.100000 -1.700000 3.400000
CH2 5.550000 -1.850000 3.700000
CH2 6.000000 -2.000000 4.000000
CH2 6.450000 -2.150000 4.300000
CH2 6.900000 -2.300000 4.600000
CH3 7.350000 -2.450000 4.900000
S 1.300000 -0.650000 1.950000
CH2 1.600000 -0.800000 2.400000
CH2 1.900000 -0.950000 2.850000
CH2 2.200000 -1.100000 3.300000
CH2 2.500000 -1.250000 3.750000
CH2 2.800000 -1.400000 4.200000
CH2 3.100000 -1.550000 4.650000
CH2 3.400000 -1.700000 5.100000
CH2 3.700000 -1.850000 5.550000
CH2 4.000000 -2.000000 6.000000
CH2 4.300000 -2.150000 6.450000
CH2 4.600000 -2.300000 6.900000
CH3 4.900000 -2.450000 7.350000
S 1.300000 0.650000 -1.950000
CH2 1.600000 0.800000 -2.400000
CH2 1.900000 0.950000 -2.850000
CH2 2.200000 1.100000 -3.300000
CH2 2.500000 1.250000 -3.750000
CH2 2.800000 1.400000 -4.200000
CH2 3.100000 1.550000 -4.650000
CH2 3.400000 1.700000 -5.100000
CH2 3.700000 1.850000 -5.550000
CH2 4.000000 2.000000 -6.000000
CH2 4.300000 2.150000 -6.450000
CH2 4.600000 2.300000 -6.900000
CH3 4.900000 2.450000 -7.350000
S 1.950000 0.650000 -1.300000
CH2 2.400000 0.800000 -1.600000
CH2 2.850000 0.950000 -1.900000
CH2 3.300000 1.100000 -2.200000
CH2 3.750000 1.250000 -2.500000
CH2 4.200000 1.400000 -2.800000
CH2 4.650000 1.550000 -3.100000
CH2 5.100000 1.700000 -3.400000
CH2 5.550000 1.850000 -3.700000
CH2 6.000000 2.000000 -4.000000
CH2 6.450000 2.150000 -4.300000
CH2 6.900000 2.300000 -4.600000
CH3 7.350000 2.450000 -4.900000
S 1.950000 0.650000 1.300000
CH2 2.400000 0.800000 1.600000
CH2 2.850000 0.950000 1.900000
CH2 3.300000 1.100000 2.200000
CH2 3.750000 1.250000 2.500000
CH2 4.200000 1.400000 2.800000
CH2 4.650000 1.550000 3.100000
CH2 5.100000 1.700000 3.400000
CH2 5.550000 1.850000 3.700000
CH2 6.000000 2.000000 4.000000
CH2 6.450000 2.150000 4.300000
CH2 6.900000 2.300000 4.600000
CH3 7.350000 2.450000 4.900000
S 1.300000 0.650000 1.950000
CH2 1.600000 0.800000 2.400000
CH2 1.900000 0.950000 2.850000
CH2 2.200000 1.100000 3.300000
CH2 2.500000 1.250000 3.750000
CH2 2.800000 1.400000 4.200000
CH2 3.100000 1.550000 4.650000
CH2 3.400000 1.700000 5.100000
CH2 3.700000 1.850000 5.550000
CH2 4.000000 2.000000 6.000000
CH2 4.300000 2.150000 6.450000
CH2 4.600000 2.300000 6.900000
CH3 4.900000 2.450000 7.350000
S 1.300000 1.300000 -1.300000
CH2 1.600000 1.600000 -1.600000
CH2 1.900000 1.900000 -1.900000
CH2 2.200000 2.200000 -2.200000
CH2 2.500000 2.500000 -2.500000
CH2 2.800000 2.800000 -2.800000
CH2 3.100000 3.100000 -3.100000
CH2 3.400000 3.400000 -3.400000
CH2 3.700000 3.700000 -3.700000
CH2 4.000000 4.000000 -4.000000
CH2 4.300000 4.300000 -4.300000
CH2 4.600000 4.600000 -4.600000
CH3 4.900000 4.900000 -4.900000
S 1.950000 1.300000 -0.650000
CH2 2.400000 1.600000 -0.800000
CH2 2.850000 1.900000 -0.950000
CH2 3.300000 2.200000 -1.100000
CH2 3.750000 2.500000 -1.250000
CH2 4.200000 2.800000 -1.400000
CH2 4.650000 3.100000 -1.550000
CH2 5.100000 3.400000 -1.700000
CH2 5.550000 3.700000 -1.850000
CH2 6.000000 4.000000 -2.000000
CH2 6.450000 4.300000 -2.150000
CH2 6.900000 4.600000 -2.300000
CH3 7.350000 4.900000 -2.450000
S 1.300000 1.950000 -0.650000
CH2 1.600000 2.400000 -0.800000
CH2 1.900000 2.850000 -0.950000
CH2 2.200000 3.300000 -1.100000
CH2 2.500000 3.750000 -1.250000
CH2 2.800000 4.200000 -1.400000
CH2 3.100000 4.650000 -1.550000
CH2 3.400000 5.100000 -1.700000
CH2 3.700000 5.550000 -1.850000
CH2 4.000000 6.000000 -2.000000
CH2 4.300000 6.450000 -2.150000
CH2 4.600000 6.900000 -2.300000
CH3 4.900000 7.350000 -2.450000
S 1.950000 1.300000 0.650000
CH2 2.400000 1.600000 0.800000
CH2 2.850000 1.900000 0.950000
CH2 3.300000 2.200000 1.100000
CH2 3.750000 2.500000 1.250000
CH2 4.200000 2.800000 1.400000
CH2 4.650000 3.100000 1.550000
CH2 5.100000 3.400000 1.700000
CH2 5.550000 3.700000 1.850000
CH2 6.000000 4.000000 2.000000
CH2 6.450000 4.300000 2.150000
CH2 6.900000 4.600000 2.300000
CH3 7.350000 4.900000 2.450000
S 1.300000 1.950000 0.650000
CH2 1.600000 2.400000 0.800000
CH2 1.900000 2.850000 0.950000
CH2 2.200000 3.300000 1.100000
CH2 2.500000 3.750000 1.250000
CH2 2.800000 4.200000 1.400000
CH2 3.100000 4.650000 1.550000
CH2 3.400000 5.100000 1.700000
CH2 3.700000 5.550000 1.850000
CH2 4.000000 6.000000 2.000000
CH2 4.300000 6.450000 2.150000
CH2 4.600000 6.900000 2.300000
CH3 4.900000 7.350000 2.450000
S 1.300000 1.300000 1.300000
CH2 1.600000 1.600000 1.600000
CH2 1.900000 1.900000 1.900000
CH2 2.200000 2.200000 2.200000
CH2 2.500000 2.500000 2.500000
CH2 2.800000 2.800000 2.800000
CH2 3.100000 3.100000 3.100000
CH2 3.400000 3.400000 3.400000
CH2 3.700000 3.700000 3.700000
CH2 4.000000 4.000000 4.000000
CH2 4.300000 4.300000 4.300000
CH2 4.600000 4.600000 4.600000
CH3 4.900000 4.900000 4.900000
